**$ENCRYPTED_LIB
**$INTERFACE
*$
* LMR54406F
*****************************************************************************
* (C) Copyright 2021 Texas Instruments Incorporated. All rights reserved.                                            
*****************************************************************************
** This model is designed as an aid for customers of Texas Instruments.
** TI and its licensors and suppliers make no warranties, either expressed
** or implied, with respect to this model, including the warranties of 
** merchantability or fitness for a particular purpose.  The model is
** provided solely on an "as is" basis.  The entire risk as to its quality
** and performance is with the customer
*****************************************************************************
*
* This model is subject to change without notice. Texas Instruments
* Incorporated is not responsible for updating this model.
*
*****************************************************************************
*
** Released by: Texas Instruments Inc.
* Part: LMR54406F
* Date: 23DEC2021
* Model Type: TRANSIENT
* Simulator: PSPICE
* Simulator Version: 17.4-2019 S024
* EVM Order Number: LMR54406FEVM
* EVM Users Guide: SLUUCK7 – OCTOBER 2021
* Datasheet: SLUSEG8 – APRIL 2020
* Topologies Supported: Buck,Inverting Buck Boost
*
* Model Version: Final 1.00
*
*****************************************************************************
*
* Updates:
*
* Final 1.00
* Release to Web.
*
*****************************************************************************
*
* Model Usage Notes:
* A. Features have been modelled
*	1. Output Voltage Setting
*	2. FPWM Functionality
*	3. Current Overcurrent Protection(OCP) and Hiccup
*	4. VIN UVLO Protection
*	5. Negative current limit
*	6. Enable Functionality					  
*
* B. Features have not been modelled
*	1. Operating Quiescent Current
*   2. Shutdown Current 
*   3. Temperature dependent characteristics
*
* C. Application Notes
*	1. The parameter MODE has been used to reach the steady state faster. 
*      Keep MODE = 0 to observe startup behaviour. 
*      Keep MODE = 1 and appropriate IC on Inductor and capacitor to observe for faster Steady state. 
*
*****************************************************************************
.SUBCKT LMR54406F_TRANS CB EN FB GND SW VIN PARAMS: MODE=0
$CDNENCSTART_ADV2
17f62b1fb318c25603aeb85644ae98a5d179ef807807791f6459efacb9d7ffc37a831b146dc0f06bb1ef275619162e6d8f7ad0dc708bf15ae1a1d5bd0ae623b2
69a727bce8eb6c589e098e30ab306bdd8e1fa76850f248f65bee73359a92a66f113e5e5058e0d662cd2cefd5c353c3ab6943718fe88726ee4fdf5e5bae3ed9a3
86b34fb9b0f1add5307b165975ef7ad7c2338ee0ee69c5f0c5c1d2875e84828c543c7648d0271ddf557f2ffdb5f70e682f758e88e9635580887b29e20aaad18f
9aa1852b8f77f1a28d42dfc489b457a9000cd74386728deda0ddde9135901718f796e028bddcfd4cc82a0e2b24b950351a8c650cf048a6954b35af8db1d00ba7
4bdf9730bde6ac26b73687a44dff479bbbd2f78f3183573e75e5f276b5c595e14c42dd6c2938ba62bb0252ba83fb2536037af2746035f700ac14fd38ba5539ae
0e3247cf1a49e781ad6c67b9de14d8987e52f4cb5a6671135dc99b00908270ce89aab190f1048a7c507b479abc05fd7dca56083a6795acba68ae836f3b6d03ab
5466023ab6344c9f7998252540fe5a98bf89d483ce122f408ce901a08dbbe5f93a1e34a064ad02f29944431342fa1a588b9854a4d800cdb8c27bf5137ff87adf
8a20e06325802d77644fc7f827c1deff40c01da969c68442de6d4bf2f80d51e789aab190f1048a7c507b479abc05fd7dca56083a6795acba68ae836f3b6d03ab
fb03e29f9720baf2e3fa221956bbc5d9a6e51cf99ccac3de5ab2ba652a67788c89cd78279bfb7e6d17778ef5d8ee429a0f9be3c470c82806af21e4c983a06d07
1a39b7db8fa627b1c6af818a9c814adb216c3f7c6d45e32f3bce2d178750e335cc1d2ff94fba7f1909c692e828d51a37ad14d2d0c8a93e0f2ba09ff8949c176d
c90481ee0af7386efee3fdffc85162c6e7bb4620c3645fe7a1231ee61d5612c6385e65a3ca8170fc144d9dd4bd2e1e53ccbad3e847d62e530988e9edb199bb51
e93da7a6f9d1915afab1b6e686c165152fc4a11759c7e6fc06ce0b728063fd72a799db20555d0742c246e4b8fb68d0360f9be3c470c82806af21e4c983a06d07
1a39b7db8fa627b1c6af818a9c814adb216c3f7c6d45e32f3bce2d178750e335cc1d2ff94fba7f1909c692e828d51a37ad14d2d0c8a93e0f2ba09ff8949c176d
c90481ee0af7386efee3fdffc85162c6ca502bc6d289f203154f48988196343f385e65a3ca8170fc144d9dd4bd2e1e53ccbad3e847d62e530988e9edb199bb51
4e84fca1235ab8cc7140c18505101c1f5ad703dcaf3ee63ab6121e0edf2b6abf021f3a0362c52c1c7d92f88e05f2c095f1e579b932a942a72c5c43c929663c11
9dbebff04a0e94000f8239d1ef3b8ca9ec41b29e73d89fd67a22fd2c5f60ad6da2b4eb28a6a2c429872a36a1708b1626b0ae236bec0fcabd91f23d2ba02ffa2f
1a39b7db8fa627b1c6af818a9c814adb216c3f7c6d45e32f3bce2d178750e335cc1d2ff94fba7f1909c692e828d51a37ad14d2d0c8a93e0f2ba09ff8949c176d
47655d1589298c3a85394add50fa0d7ba118dd8a3350343dde8af89e951a3caacc1d2ff94fba7f1909c692e828d51a37ad14d2d0c8a93e0f2ba09ff8949c176d
ee1d42b816cc1a5cb8ec95b04f2d22cd6c5941bfaa2fc863ce4d5f0029af5e9e36c9ce5d443314bf7fc2aacf1b5302cf6943718fe88726ee4fdf5e5bae3ed9a3
86b34fb9b0f1add5307b165975ef7ad7c2338ee0ee69c5f0c5c1d2875e84828c543c7648d0271ddf557f2ffdb5f70e682f758e88e9635580887b29e20aaad18f
9aa1852b8f77f1a28d42dfc489b457a967b44ec518218562bdb591196f89f7d7f796e028bddcfd4cc82a0e2b24b950351a8c650cf048a6954b35af8db1d00ba7
3423b3c322b38eebc36832947d98750493182aa5bf5a710b1b4cd4b60cb148636906f121463f28ee317abc532961809b1023287508a499a8f3a6782a13c6bccd
01e5b74784dbe6f54b2a8b511911b85413e8adc9f81733907e59f71dc488b9eec2b166b88cf7a52c83725b5d45c656bc5d12e247ca717beb133de3fabe929778
47655d1589298c3a85394add50fa0d7ba118dd8a3350343dde8af89e951a3caacc1d2ff94fba7f1909c692e828d51a37ad14d2d0c8a93e0f2ba09ff8949c176d
d6bdfd9bec93dd35adabc053bfd3477c846bb11caed53582240454c2a30a9a1d8cf320ed2b88890a4abf89fede18ae5c378287ac36c5edadd56c3a17ab53ced5
bec384cd59ac5b14fd40c4d2c27a2c0d780b9f94c543ccd11b7b912ea7a916ac01edc68eceb2e6f44f6c3e48c367026d23080e112da6104a84511739cd1db06c
9aa1852b8f77f1a28d42dfc489b457a9000cd74386728deda0ddde9135901718f796e028bddcfd4cc82a0e2b24b950351a8c650cf048a6954b35af8db1d00ba7
d3f30395ec621b82f35e685b245aad3b9a2df064a75ab3094ab2854b861b538e782a0d689d6d4916dd48b8ad7cdca73c64286c8c26a0080c81e3899f192ef18b
ee22c138a0e368324b204e353266b2bc780b9f94c543ccd11b7b912ea7a916ac01edc68eceb2e6f44f6c3e48c367026d23080e112da6104a84511739cd1db06c
47655d1589298c3a85394add50fa0d7ba118dd8a3350343dde8af89e951a3caacc1d2ff94fba7f1909c692e828d51a37ad14d2d0c8a93e0f2ba09ff8949c176d
8a36b88e12c3b78d17c7c49cfffb8d076c9c2009d4e4c361bc73418e981ea1dbc3313db6b6babbdb4d9f66140f4dee34a3362cded732f441cee0555ee04c797b
47c2234b0a69ef047439240b1dff40a95fd3e6fd59cd907520117211fb29c4dccc1d2ff94fba7f1909c692e828d51a37ad14d2d0c8a93e0f2ba09ff8949c176d
9aa1852b8f77f1a28d42dfc489b457a9fd935f9b6797beecf97a147ccf466d34780b9f94c543ccd11b7b912ea7a916ac772a04e980d6360cf7c7ac05e91062a1
abd48ecbc035d4d755410f5595634b25b038376c7e0ef6f9cee18919c18b694b2f6bae5ead819a1c9c008e140fb09dd07fae63c2ffca8cc782414ed510a462e0
6bac563e41bf47a6a2c554c8f61b19d089aab190f1048a7c507b479abc05fd7d0df16a92ed1655b20885c188c86f0a7d4b5a0202061f8df54ec8933a75ed523c
910301d70f931d569b3b3d67721bb5453906bbf5a3d3ee1ff156c2ffb06eb72e3372a66d28780dd0f0fda1e9ba8bfa72513544a08e33c878bc9b304bb2502874
7b0dc695afa03b887de0af9e951d7395f3d20ddff386a83ec55cdbff8d7b0cb48ba593dbd8007bd114ac44c1cea0ca79b1c810882103964a9c86c79baa7b7c4b
b31adca88cf35e3b3a2d7dfdf088bdc489aab190f1048a7c507b479abc05fd7d0df16a92ed1655b20885c188c86f0a7d4b5a0202061f8df54ec8933a75ed523c
a4983595361814690da3f1b7d95ec03fef6fb1b1d7a33c9c6037a6d24b8e6fdbf796e028bddcfd4cc82a0e2b24b950351a8c650cf048a6954b35af8db1d00ba7
b553a611ba46fe01260fe520d215c76e173ceb656650c78e21795ca500e1ca0862093d1b39b8425982deaa5c19f3d5a2d0ea854825797c1310c0a5697c9f0907
7fd2f77385a2b43d1e8a0ccd15530a794fffc680f6af89a1e97eb22a7f49f716b225558074c80c2807559cb66f605524ea24a8319591b4c4e75d1d39ae9b3e5e
a96ba3ff224e05a49304539c01f3fdd1c2338ee0ee69c5f0c5c1d2875e84828c543c7648d0271ddf557f2ffdb5f70e682f758e88e9635580887b29e20aaad18f
c90481ee0af7386efee3fdffc85162c6e7bb4620c3645fe7a1231ee61d5612c6385e65a3ca8170fc144d9dd4bd2e1e53ccbad3e847d62e530988e9edb199bb51
1c6f61590410ed7b048250422f099b31424b7881558afcc51e7ac76bfa0a21b8e6040cdcb3ddc25701696b7cf42ec74df1024e99fed95335810759c19f1c6ffd
92d76faa63d15326e77569bef401d9f0f796e028bddcfd4cc82a0e2b24b950359b7384a4cb58af6a4fdf449e1e53b71f6a3a0b45d27077ceeb4ca6267c3f2219
9aa1852b8f77f1a28d42dfc489b457a99dbb96b360565b6b8e5953aa0fd6e6c9a0ab816095f6119999be8a5f5a26fc30cdca98a457f64db4853626133ef7e38a
f6df88671c4b251849724187a8523786ca21b0cf43b90faca015166dc676c1912579a5e057f4d2f7b30f6cfad02499f2ea24a8319591b4c4e75d1d39ae9b3e5e
a96ba3ff224e05a49304539c01f3fdd1c2338ee0ee69c5f0c5c1d2875e84828c543c7648d0271ddf557f2ffdb5f70e682f758e88e9635580887b29e20aaad18f
c90481ee0af7386efee3fdffc85162c6298c639af632daafb2f8acd1b394f10002d8be3fc689f7d8456912beeb75de29f1e579b932a942a72c5c43c929663c11
c6ff5d693321dcd72dbf03ac3be892efd0b49e58bf1e068d597717807778a124e5ad9cbd08040ade9f6b0325cb0edc1897e0bd9ba5294833c688390283b4947e
86b34fb9b0f1add5307b165975ef7ad7c2338ee0ee69c5f0c5c1d2875e84828c543c7648d0271ddf557f2ffdb5f70e682f758e88e9635580887b29e20aaad18f
9aa1852b8f77f1a28d42dfc489b457a910cd12e68375e2c0fa84f00f4bf61f9620085aa8735c9c03ce7d697eba66e7f7ccd985f94a55d378d12eac452def73f7
cf4ff8a0f3c35b1790a261c0724cb767064964619d5182cf86f478b7814713a601c70d1ab3ea1a6fe8b327bb3754dc6b230c493563343d1ea71d8a31440fd676
86b34fb9b0f1add5307b165975ef7ad7c2338ee0ee69c5f0c5c1d2875e84828c543c7648d0271ddf557f2ffdb5f70e682f758e88e9635580887b29e20aaad18f
9aa1852b8f77f1a28d42dfc489b457a9ebc6c03287b22c12959389cdf78447e2780b9f94c543ccd11b7b912ea7a916ac772a04e980d6360cf7c7ac05e91062a1
00f910a5a75f874ce8a0d853bd3d9d3ed2951872c76d3b2eb3aaca3ec61feb530a546e28bf505f170051d77f760e93e83d29ad5315b57b6df35c0be498511cdb
47c2234b0a69ef047439240b1dff40a95fd3e6fd59cd907520117211fb29c4dccc1d2ff94fba7f1909c692e828d51a37ad14d2d0c8a93e0f2ba09ff8949c176d
9aa1852b8f77f1a28d42dfc489b457a910cd12e68375e2c0fa84f00f4bf61f9620085aa8735c9c03ce7d697eba66e7f7ccd985f94a55d378d12eac452def73f7
617bff3096673b6cb49472320059345b5d15c9a52f7799cf8536229c2ac93e1813b56c060be9fdffee15263ba37288bb51e8b8f85e1fa41f1e67d7082195ca0d
493ff041f822e88482b6a640bb032ca25c5d0956d164ec3194ca65fdb293dd387cbf163c9f18caf087a39a5212ef572fc0829fc362fe499bdecbfa0516c73b4b
c5509b48ae466f28bb8e729977113e92c1fd87670312907d401965c5ab036cf6fa9438a779f4e9f1c7eecb14c4e0267f39d92a43e014b233f1cf5043c6591097
95ff0369e53a1ee5db9ec013470977afb20779a2ea3c1d7bedd300369e022078281ddc864136bd11758d0f71f01d3157f1024e99fed95335810759c19f1c6ffd
92d76faa63d15326e77569bef401d9f0f796e028bddcfd4cc82a0e2b24b950359b7384a4cb58af6a4fdf449e1e53b71f6a3a0b45d27077ceeb4ca6267c3f2219
9aa1852b8f77f1a28d42dfc489b457a992712f653e2031fc0f610084636624e7780b9f94c543ccd11b7b912ea7a916ac772a04e980d6360cf7c7ac05e91062a1
b449dfe980f25d1443a59c7593ef31435cdf5b5c103888ee33bd8a5cb22c1930088e1f488e3e3ba78ec0b5fd59fca632370842c800b9ebb40b8e17fc17cb97a2
d519a04c0e7fc2b658909c89bf0c6425169a857d1078f0be21c632bb3ca4e8ec9240092a30adf32a87ac36c58f74e9e064286c8c26a0080c81e3899f192ef18b
ee22c138a0e368324b204e353266b2bc780b9f94c543ccd11b7b912ea7a916ac01edc68eceb2e6f44f6c3e48c367026d23080e112da6104a84511739cd1db06c
c90481ee0af7386efee3fdffc85162c6298c639af632daafb2f8acd1b394f10002d8be3fc689f7d8456912beeb75de29f1e579b932a942a72c5c43c929663c11
3df4f9f834f6148e17d164c57a3302b8b81487e016807c868d83fe180244f57bda0bdd54dd9e08d87d66e68a561c0ef040cf93369af91f0fe27b4ec6a6ea7f53
6cff6b7410e42ffd308d6a850f9b1869780b9f94c543ccd11b7b912ea7a916ac01edc68eceb2e6f44f6c3e48c367026d23080e112da6104a84511739cd1db06c
910301d70f931d569b3b3d67721bb545a2a0863e4638aac400f06f1008770617b1f9352bee49971698bff0d83968e146d0ea854825797c1310c0a5697c9f0907
3f5116788f7faa37e39987d905e807330d838aa09b46b60e546d2aca3418522c2c751f89d6fff7987562c20c24d0876201d2ede1359a85bbdfffd15d93dc6197
c239fc0d16001c17e24be7b0b69f6c6bf796e028bddcfd4cc82a0e2b24b950359b7384a4cb58af6a4fdf449e1e53b71f6a3a0b45d27077ceeb4ca6267c3f2219
8dbbb958602553232ee699663985026bdcd4844856e7959232f1238d4a2c343f732f6780f9daf3ad091028d4d4e3cca40d1a5b163dbb232a4557c460fa5ef428
7513b35112bf4d02580d2376359d5dbea75b7037296bc92963e29b2b526d285e38c01f7cd0c45118623179a292aa4768b6dee7d1b406db17f52b73cc13617e73
0d3c41c3911ab730b2b9bd9d81ff4cada6f251b59fd188a86b512b9ea61e8525d2f1aae3b86a87f820f89cefe04aa1e03735368c1e4e17d4dbba75ac8d1a33f2
c90481ee0af7386efee3fdffc85162c612b7b76e1b49e297cf0dc01d57ca3c0b89aab190f1048a7c507b479abc05fd7dca56083a6795acba68ae836f3b6d03ab
57b24a72eaa80ed1c2a21f7e0dff32ee1a11bc23696203844e6845c026d52108e7de09954599b13195f04b1809da5048c0ff68fd9a8e7f11f5300d138d2e3707
86b34fb9b0f1add5307b165975ef7ad7c2338ee0ee69c5f0c5c1d2875e84828c543c7648d0271ddf557f2ffdb5f70e682f758e88e9635580887b29e20aaad18f
9aa1852b8f77f1a28d42dfc489b457a910cd12e68375e2c0fa84f00f4bf61f9620085aa8735c9c03ce7d697eba66e7f7ccd985f94a55d378d12eac452def73f7
bb3487af2a78ee5ecac9a2fc73d24bf59ee684308aa7ea31424e03f32077b70337e5617a37f2658949b92b9342e3ec8bf8983507fc593da9c0941de1ca7e71e0
6199fe0feb39a4d5c402808ea556063689aab190f1048a7c507b479abc05fd7d0df16a92ed1655b20885c188c86f0a7d4b5a0202061f8df54ec8933a75ed523c
c90481ee0af7386efee3fdffc85162c6875485cf64d1ea44315ccd4c7d6035a3385e65a3ca8170fc144d9dd4bd2e1e53ccbad3e847d62e530988e9edb199bb51
fb119789db51d4b296630eb8fd823d75e8001144e8c93526096e4d10402024225827fe5ffcf4975a6e03be1f260c0cb001d2ede1359a85bbdfffd15d93dc6197
c239fc0d16001c17e24be7b0b69f6c6bf796e028bddcfd4cc82a0e2b24b950359b7384a4cb58af6a4fdf449e1e53b71f6a3a0b45d27077ceeb4ca6267c3f2219
8dbbb958602553232ee699663985026bdcd4844856e7959232f1238d4a2c343fb7330f6ee261224ccaf2b79e32e712ac0d1a5b163dbb232a4557c460fa5ef428
8783e0ceedf7463d2949b8c42ed757679ee684308aa7ea31424e03f32077b703b06aa88f6c1dcb7765d552e677fbc39ff8983507fc593da9c0941de1ca7e71e0
6199fe0feb39a4d5c402808ea556063689aab190f1048a7c507b479abc05fd7d0df16a92ed1655b20885c188c86f0a7d4b5a0202061f8df54ec8933a75ed523c
c90481ee0af7386efee3fdffc85162c6ac059af3220befdc09178cf3b1f209fe02d8be3fc689f7d8456912beeb75de29f1e579b932a942a72c5c43c929663c11
29fb51d1efa4d18dc3f07e794bfc2c4580af243b130c3f142c176a80ee5bb5b547319c0d847b8f77edf0156a010d5b42889970e7c3c1d6fcf893a34acc93cf40
3e448cc1ce7d9fddf42b9ade21ddc560e99c22d71bdc44c53c8d64a1b07eafb689aab190f1048a7c507b479abc05fd7dca56083a6795acba68ae836f3b6d03ab
44372bdcadb682e18f106dc6e04c36447dbc2aa346831bd83ca0700461ea0a317da48e656a7b802e957337be064d8d9c230c493563343d1ea71d8a31440fd676
86b34fb9b0f1add5307b165975ef7ad7c2338ee0ee69c5f0c5c1d2875e84828c543c7648d0271ddf557f2ffdb5f70e682f758e88e9635580887b29e20aaad18f
9aa1852b8f77f1a28d42dfc489b457a9031f1ecbb3861e9aa6e3b2752700b04c780b9f94c543ccd11b7b912ea7a916ac772a04e980d6360cf7c7ac05e91062a1
ba6afba1e124a7c2fdde003de34f9d55072aae14475340746385106a88723b8354b0da63c7730760eee11c40183a55c501d2ede1359a85bbdfffd15d93dc6197
c239fc0d16001c17e24be7b0b69f6c6bf796e028bddcfd4cc82a0e2b24b950359b7384a4cb58af6a4fdf449e1e53b71f6a3a0b45d27077ceeb4ca6267c3f2219
8dbbb958602553232ee699663985026bdcd4844856e7959232f1238d4a2c343fa3fb5710938dd23f41211464e0083a90e808fff0fec667074c2f0aad81f1f4a9
7067e70e64d3f941431bfb00d161fa839b135fd51e227e9863f279c0a98b291eee6b31f8c2f693bd5d72f35a0ecff52cf8983507fc593da9c0941de1ca7e71e0
6199fe0feb39a4d5c402808ea556063689aab190f1048a7c507b479abc05fd7d0df16a92ed1655b20885c188c86f0a7d4b5a0202061f8df54ec8933a75ed523c
c90481ee0af7386efee3fdffc85162c6fb93f02bf491131bb47af7714a62cf1089aab190f1048a7c507b479abc05fd7dca56083a6795acba68ae836f3b6d03ab
4907f09b3594a2776d86c9c9aa9239af0d838aa09b46b60e546d2aca3418522cefb24b88eb51590802e654d3795ddc0f8063305f87cbf34b7dd25dcca87c9d04
015a58a8aa0fb6feffb7ab8c7e54299959fe4553e56588ea00d5fb90d10a6e609ba930d2c1c913aa187e258bc70cc670c8fc48d90d7ce85266e14c7625c40ae0
c5509b48ae466f28bb8e729977113e92c1fd87670312907d401965c5ab036cf6fa9438a779f4e9f1c7eecb14c4e0267f39d92a43e014b233f1cf5043c6591097
2a6a99cf51a14fb107f35cbcde80dde42863377dc74872a13672193bf3c98de4ce45dbb58f3f9bba022ff62aafcdb6d620ca100291c20b177de6469389dd8fcf
2aa2ee0c939a99098a161068a505ae4af796e028bddcfd4cc82a0e2b24b950359b7384a4cb58af6a4fdf449e1e53b71f6a3a0b45d27077ceeb4ca6267c3f2219
910301d70f931d569b3b3d67721bb545a2a0863e4638aac400f06f1008770617b1f9352bee49971698bff0d83968e146d0ea854825797c1310c0a5697c9f0907
737a4fb22ae4ccaad7b7ac8a46622e466a1b77c1158ee48ca2dce8a940ec362489aab190f1048a7c507b479abc05fd7dca56083a6795acba68ae836f3b6d03ab
d37b484f53bbc55b5bcee6cf26ff0b61362d171d84205f44785d25d96fcec6fe27f29ee06576edc7a2cc309cb2ce46e7f1e579b932a942a72c5c43c929663c11
201814650d4c64046d5738f54cb80bbf77a22808d91b5b6cfbf8878a9b2481cf6b780510d971ee2749df69c4b5f0289e4650f23a0b7bcb038b7e46f3a4c42709
64878afaca5bfba5de56faba880de55dc8d7b5a464d08a27cc819973d062778acc1d2ff94fba7f1909c692e828d51a37ad14d2d0c8a93e0f2ba09ff8949c176d
4839686ba109d2a2e37788b3c11bc4a11678d1ed537dd8592952b91d1fa76da7385e65a3ca8170fc144d9dd4bd2e1e53ccbad3e847d62e530988e9edb199bb51
56cf9b7c50abb379b0b8491ac8932d91de00e229a409b0d30c4a65fae915cf083ab87de8df95f39d6dbfcb549aceada8d3977e691bddb851b99630e8414fc91a
d76df06bf3a56fdf3fe6b7f646f432f0c73cfbed6e6d4819e974b7699c8a50706b0b07609b25a291feec8bc62ae0cabf69a69f82d6bd210d662e109967874c2b
0aafd2d027cd79a9104d8339a570fceebbec32135694e006b0f9f1898e416e6500d4e9bc312ed2c289e2050d6b6bd654ef646e318b6a32d5dbe9a46a0dd4caed
5f74ccaee7006cd25a54b5332118cabb7df2755d5729e65fe3e687e8a4456d4a4da40b8abc025c784b405128d5d2dea2bdf81ae688b241176c6d55e02fa03a8a
249b3dd42c9ebfd03a1541ae693e2c24c2338ee0ee69c5f0c5c1d2875e84828c543c7648d0271ddf557f2ffdb5f70e682f758e88e9635580887b29e20aaad18f
318f18e47670df3a61537d1d13bf9492d9a9202f15e269bc31d4b235f3c685f8164b1ad833de9dec74512fbcef7b46cfcc4b4f5fdd98f7d9d7d23e33924d0fc7
2555d8453349177961725650e7aea0cdf796e028bddcfd4cc82a0e2b24b950359b7384a4cb58af6a4fdf449e1e53b71f6a3a0b45d27077ceeb4ca6267c3f2219
a88ed8236e139eb4f52c64fc39af1e3c057cf6ed6f2ccc6ff1126830272cf5588c00925bd761373824201e3326883e92b1b12e21143e272ef5f3a729b027bc69
78e3b04dda912560840dfc79da469132385e65a3ca8170fc144d9dd4bd2e1e5355d3034169bd34cd8b5739ed13e295f56aac3f96e16ba1d4b331d8abd6d5ad35
e170ae8bbcbd2b445eac9ad9c5853f94373253583cc1131e0e809eacc0a8faeec2338ee0ee69c5f0c5c1d2875e84828cbee33ec728fa74aa73cf79a5bf000423
5db7f7540b1b78a75eb2098b01fd6a8402225439bb8f1491e62e4226efdeca87782601ed0604a97af5677598ec73f786370842c800b9ebb40b8e17fc17cb97a2
81ff8290a03073b30902be083e7ab79ea7e77bf3e4306e5ed3a2730ca4407f10fbac54886a46e6799b7c5d287c127112d0ea854825797c1310c0a5697c9f0907
f74bae388660e81fe30d617abc3636b07ccd6fafab3a4c6ab0f792835765645c7eee3f80d589e34bc6b2692454fecff28a544954c51370ab498aa1748a73a3bd
c5509b48ae466f28bb8e729977113e92c1fd87670312907d401965c5ab036cf6fa9438a779f4e9f1c7eecb14c4e0267f39d92a43e014b233f1cf5043c6591097
8167bdf42e77a2ad33d37f96661961238fbaae50cb217230ce257d7274150489b360ac9b4cbe9cbf8af24fc7a2fcea2870078c4015dbc70d8c6b1d43e353eabe
ba2776f3e581c68321268c1376b2f17ee57757ad84fdec7b1ecee54bb1a18ccbcc1d2ff94fba7f1909c692e828d51a37ad14d2d0c8a93e0f2ba09ff8949c176d
95bf3313aa7755bfe472a8c929c27da788903b43ffb496e6b8d53bcdff49d67cd4d46a7a197b894872950b9ebeff6fa30cb0aaad4dbbfdc003619f1fe3a7efce
2ae308bb456dc2c4bb8aaecad221d8de9ff2eb5d0e94d9a388ee7020827334ae9b05b20fc1b4fc73258ca9774be20df6e32fa7693fe7d495897c273f78c88792
995288ef9f42d96225ca1560e72a62028d4e62d61dff26275dacd8ca691a5f1538958f2a1fa5eebee0dada2df30a44daf71b84ed16fb0c342930b60a2e5a125f
f76bd6e1baabced2fea8406be009d8fc130468a99237e38e4d60ca8d3fe478ede8fd1c3989600ebfe1b703fd4d8117d6037af2746035f700ac14fd38ba5539ae
f1a7f3a30cfc68a5eeb3b0b2e855472b077a0b38193dfc3b1e5fde1981361256608ba0e8c0cb447ff7e42f603ddd02fb407bb6649e473daf248b19b6d7154fad
0f91b3e9bbc329d4c98da585dc4e505f780b9f94c543ccd11b7b912ea7a916ac01edc68eceb2e6f44f6c3e48c367026d23080e112da6104a84511739cd1db06c
89f861cfad77dae8db4a1a020554a10af227c69b804c13c5ee185794c8620d8162975f51f4f46711d0a03385ce86e896513544a08e33c878bc9b304bb2502874
681be4631d4e79f80e0dc6b71d67c492b99c9e3bd65a956a7fdaf87f30ee4bd5566b376912e2740d73229c6314c84500889970e7c3c1d6fcf893a34acc93cf40
b479e2168bc9d52148b045da7a22b0d76da1faf983385f849e44382808d0a8c312010240a97d28fea96756cd8c6cba10da99be6d36edd9c00b34c391b683288e
929f1f8add8f41e84bd90bae2422af2a2002485a79010ac5dfa4da49e56c65084ed8902c85f2c6195620820cf02421eb1900c4f5444fd09250d935c5dc68c527
32ded3db8417b68c840b8e61c2b71d5b4450cea88932f22a7abb9bb2edc8a6bd89aab190f1048a7c507b479abc05fd7dca56083a6795acba68ae836f3b6d03ab
16b66822f7acff7043a9719af8f482713077cbd667e7b8016eb4f60b5fcef2ee9fd06019bdc258c891b4b5e8d857c9f004aac312d2a81a0fdca854e1d933f8c9
46e6f143a821d666604c5e9e07f3f84c20085aa8735c9c03ce7d697eba66e7f7ea0e93b2de0ae1964f00543dc97ab4acff23d6298205f01f361e7ace225f8009
24575a9149019c1176a62a600d08e88a2efe8daab0b10ed802a01484addcb1269113d4454a5cd7b4b0f6e2bed2e51bf677eb7e79656c53f6692a98d252f9d108
32a821b08ca776781509e6b2ed162b12385e65a3ca8170fc144d9dd4bd2e1e5355d3034169bd34cd8b5739ed13e295f56aac3f96e16ba1d4b331d8abd6d5ad35
7f00d90489ce647d4facfcee67f1d39df3ea94b5baf39ed4c518367bb8c0ed77e41d348d34ef1f6a47634ff5168a1b7405edef60091d8b013a8ad77a1ea10fd3
6e4d2163b2cac8b2fb3fa8efb90cda5df796e028bddcfd4cc82a0e2b24b950359b7384a4cb58af6a4fdf449e1e53b71f6a3a0b45d27077ceeb4ca6267c3f2219
1dea8ea31a60e83b631ddc31a04691359db71c7f8c219c184cbdd96fe7c1cab98d4e62d61dff26275dacd8ca691a5f1507707c04b1d14cd87db0d277e0080ad5
98880090a8b944265207df7f63e67f4495cf078052c5b553a72a105e234668e14bc3a192e985a7b06e2f0de60e897560edf696be08b1a971a7a468a3f404dc40
c6c9e33ce5b895326500a0cb066f8b1189aab190f1048a7c507b479abc05fd7d0df16a92ed1655b20885c188c86f0a7d4b5a0202061f8df54ec8933a75ed523c
8dbbb958602553232ee699663985026b9ef4b59b82d27b3718d136702c20e10ea6f251b59fd188a86b512b9ea61e85251188b6b333b754a7975cd5f025b05bb7
553046dd61cd94973d0e4fcab50b8cd9f244ce7ccece44dc27b81776f2f7ca4d256bbf12b34793ebdd020d77ff6f18b7b22246c4813be9998c99c43a63ee9586
e28df74134407305f545279434d44a7ef3ea94b5baf39ed4c518367bb8c0ed77e41d348d34ef1f6a47634ff5168a1b7405edef60091d8b013a8ad77a1ea10fd3
4f6179ca19c5e9d23c03093e11f54d68f796e028bddcfd4cc82a0e2b24b950359b7384a4cb58af6a4fdf449e1e53b71f6a3a0b45d27077ceeb4ca6267c3f2219
f442da3b19b79d5993fac43b3fa891209db71c7f8c219c184cbdd96fe7c1cab98d4e62d61dff26275dacd8ca691a5f1507707c04b1d14cd87db0d277e0080ad5
b7e1c077236572dca237bb96d6ffb17e513858af157addbf57d1e02399857f02241573346d3396139699bb7c8c663a34a87f9278e2c3e361f55a5fb25b376070
f4b1464de8a2855e7b9d23abcb881e66000435ec28e35de71cd73df63c577dbc9d50c556798f9f7d52de3638d666fa1e8f12195a94a26406ebe6d5c993de5e7f
fc26ae30b81be24dace20a9e7a909ddc282a6d214491739832368d363e5e3789c2338ee0ee69c5f0c5c1d2875e84828cbee33ec728fa74aa73cf79a5bf000423
0e7c0a7a40cbe2f00f8ac6c81c2572806f34908f7967ec136519f61b67c9f845f796e028bddcfd4cc82a0e2b24b950351a8c650cf048a6954b35af8db1d00ba7
0dcc8387ff41230cd152141a3d8b925c74a1bae83e4aeba89c41916c0c3d438a9b4a4b4689497f9930e2cb10a274062708a36e60141210e8883b6d851a7e594b
e694faa63d1e282520eb32c08b42abd66cda12e378c91a24a8edb5e5919173037dc9f088708f2218c89af595bec295a639913f2d23d206e889ee6660d1b5c625
53374cb6747c478004f3a20d77f4f44f169b2db3aedc08448cf993631962c6e39a2c1396c3347fee32e6c4b52487db7e5091e943095d145ae40ebefd5c3c1d3b
88903b43ffb496e6b8d53bcdff49d67cd4d46a7a197b894872950b9ebeff6fa39df3107579ffe50f7ca6e39569be6786de777d5998732585390fd1040e250d1a
3538def6aa18d955027997055a57ae61deb9bb27252586d5e449c0d23b818d96485777baedf4f31ff1771a7c3e81fe71f2337d54b503662c8ae452e157c1d4ef
bbbdce9f3ce58be2e501c51572ba9885f796e028bddcfd4cc82a0e2b24b950359b7384a4cb58af6a4fdf449e1e53b71f6a3a0b45d27077ceeb4ca6267c3f2219
d1e616faa206a32b776276ca1dd32117d495a79572c69aea741db16b60cafce44c1e57a1d39449feb3bb9e2972153650dac35d154e82432b3117ed4754dc1530
7f8985a80ee4614642234011a6ace6f602c261acc456f5c92f746b8f7a065e0e12337eec6ce8cb3050487117d709463d3f9201f803909786d4f9862169ef68e5
ab853600d680f2732c981c30b42ad5e189aab190f1048a7c507b479abc05fd7d0df16a92ed1655b20885c188c86f0a7d4b5a0202061f8df54ec8933a75ed523c
c99b8e8933c308f2fd34311aa00258e4a6f251b59fd188a86b512b9ea61e8525d2f1aae3b86a87f820f89cefe04aa1e03735368c1e4e17d4dbba75ac8d1a33f2
9f991471d5f84bb76d542a8926bb5de0aacd3d5ddbdc95d7500951796746567d021f3a0362c52c1c7d92f88e05f2c095f1e579b932a942a72c5c43c929663c11
8382a232c3c76470bd79fe2599ff2b030790be1bd96efafe97116109f58ca56da6f251b59fd188a86b512b9ea61e85251188b6b333b754a7975cd5f025b05bb7
41feb93739ae4279b4d33c235bc0471b78955cec44e700916762c28a989f38a8e6ddeca8a715b6c6958c15c42dce3c45ea24a8319591b4c4e75d1d39ae9b3e5e
a96ba3ff224e05a49304539c01f3fdd1c2338ee0ee69c5f0c5c1d2875e84828c543c7648d0271ddf557f2ffdb5f70e682f758e88e9635580887b29e20aaad18f
c90481ee0af7386efee3fdffc85162c6e7bb4620c3645fe7a1231ee61d5612c6385e65a3ca8170fc144d9dd4bd2e1e53ccbad3e847d62e530988e9edb199bb51
54d571d420258da7ef52b4dde90f530d46db7953ebddcc529b7a333804b780e99c3e1d207bb2ba8fec0ce96c6a0fbcb4b4e96338e33980171185d9154147f7fc
7a53c66d72761fbd571992fd2995c181766fed7460260306fcb90a7085bfae4cb1f9352bee49971698bff0d83968e146d0ea854825797c1310c0a5697c9f0907
f6e8be638fe01b7ecf5bf55e0bffa38b594149dd3ac9d7d9ab0f1e77c4168d84ffbee2c26a031d97c5d78598ead657c24b1404d8a4c105896a39cd3570c4f9da
bec384cd59ac5b14fd40c4d2c27a2c0d780b9f94c543ccd11b7b912ea7a916ac01edc68eceb2e6f44f6c3e48c367026d23080e112da6104a84511739cd1db06c
9aa1852b8f77f1a28d42dfc489b457a93bb7b57dd7560ecb9410ef5510489a6489aab190f1048a7c507b479abc05fd7dca56083a6795acba68ae836f3b6d03ab
3c75b800561e2b8df7467fad3e9d455aececd19916d6096b34e683add37ddea54cd7ca0827ff15582be07f897df0062f8b9854a4d800cdb8c27bf5137ff87adf
dd1c3f07526eadea50ed84e543f4f14ecee07da0c3224e98267421402f8cb8fe9d7c7e61e45a948d9256c52476d06337c861968a2bd17be87888c26ffe32f4e7
47c2234b0a69ef047439240b1dff40a95fd3e6fd59cd907520117211fb29c4dccc1d2ff94fba7f1909c692e828d51a37ad14d2d0c8a93e0f2ba09ff8949c176d
9aa1852b8f77f1a28d42dfc489b457a967b44ec518218562bdb591196f89f7d7f796e028bddcfd4cc82a0e2b24b950351a8c650cf048a6954b35af8db1d00ba7
88487e4ab6a05bfb1819ffa6ce3e6889b400a9177dd22d63805c2f5b3e3bcb7185d1954313c7becf8bb191db8df3f91510d882259925eb1719c74e3fa4fec491
23d145621d75b293b402b5d0eda4528059fe4553e56588ea00d5fb90d10a6e609ba930d2c1c913aa187e258bc70cc670c8fc48d90d7ce85266e14c7625c40ae0
910301d70f931d569b3b3d67721bb5453906bbf5a3d3ee1ff156c2ffb06eb72e3372a66d28780dd0f0fda1e9ba8bfa72513544a08e33c878bc9b304bb2502874
87520ad4f064581e33aab06ce9b139644a2d01a6c0186568e280e12ff0d7fb52272473845078662c105c810e540165288b9854a4d800cdb8c27bf5137ff87adf
4b0cc84ffe723d7fd5ddad4275cf931fe4e370e72e12ae6ea34a2dff6e6cf607991f1d48a7f5577390b802e33e6e8fb3c861968a2bd17be87888c26ffe32f4e7
47c2234b0a69ef047439240b1dff40a95fd3e6fd59cd907520117211fb29c4dccc1d2ff94fba7f1909c692e828d51a37ad14d2d0c8a93e0f2ba09ff8949c176d
9aa1852b8f77f1a28d42dfc489b457a9e4c4c939a83693d20656739c92b56d7cf796e028bddcfd4cc82a0e2b24b950351a8c650cf048a6954b35af8db1d00ba7
36fbb544c178721041d3561e2b1588ab2ee0c6d70d90fe2faab4f291fc48238905027767b893bd20358e84c2090df2a5f1024e99fed95335810759c19f1c6ffd
92d76faa63d15326e77569bef401d9f0f796e028bddcfd4cc82a0e2b24b950359b7384a4cb58af6a4fdf449e1e53b71f6a3a0b45d27077ceeb4ca6267c3f2219
9aa1852b8f77f1a28d42dfc489b457a9fd935f9b6797beecf97a147ccf466d34780b9f94c543ccd11b7b912ea7a916ac772a04e980d6360cf7c7ac05e91062a1
77388826fb6722275b73d6843cddd2ea7027faa2fd241d2fbaca0b3f62d2e46b770736f7ed23bb4460b908a320df0b65c861968a2bd17be87888c26ffe32f4e7
47c2234b0a69ef047439240b1dff40a95fd3e6fd59cd907520117211fb29c4dccc1d2ff94fba7f1909c692e828d51a37ad14d2d0c8a93e0f2ba09ff8949c176d
9aa1852b8f77f1a28d42dfc489b457a967b44ec518218562bdb591196f89f7d7f796e028bddcfd4cc82a0e2b24b950351a8c650cf048a6954b35af8db1d00ba7
bdde47af229159e73174bc72373c3dd7d120b1e0cd544b46a5b29c31a10468fb76ac763938a76715d908025d21942f56ea24a8319591b4c4e75d1d39ae9b3e5e
a96ba3ff224e05a49304539c01f3fdd1c2338ee0ee69c5f0c5c1d2875e84828c543c7648d0271ddf557f2ffdb5f70e682f758e88e9635580887b29e20aaad18f
c90481ee0af7386efee3fdffc85162c6e7bb4620c3645fe7a1231ee61d5612c6385e65a3ca8170fc144d9dd4bd2e1e53ccbad3e847d62e530988e9edb199bb51
3fc1e4ca0b0ae6476fc88c9dc31092ea0f405ccea43d810237143f542839bbdfeeea53c7a1835cfaa12fbceb19fdb6a725c2f8e24381148223e21ec1cd77c467
d11c1f9eb5572161cc24971de42beb7ea6e6b3027a459d569fe3e59c353c7d368c3a825561a32210e68d2b365410401b16fe2e86667fd1cd65523c1868c3394b
92d76faa63d15326e77569bef401d9f0f796e028bddcfd4cc82a0e2b24b950359b7384a4cb58af6a4fdf449e1e53b71f6a3a0b45d27077ceeb4ca6267c3f2219
9aa1852b8f77f1a28d42dfc489b457a98772baa975c598d0fed20d359ce9bd5fd4d46a7a197b894872950b9ebeff6fa30cb0aaad4dbbfdc003619f1fe3a7efce
507076b8397a72ad44bbfb60b977c62017cf265dd92ad779942820df7111801fe05fff736564036fd6c541f8f0996aadd0ea854825797c1310c0a5697c9f0907
98604e35ea57cb6a21116a072a7c2e8f6c36a0d5a85babb8d11ac5f3dd5df1b1727fafde9ab2356cf15a4844fe778b3d3f8b39faf384a994e5b5cb2adf36e8c5
b20be5facc0e106a812ea27f6d9abfd90b876314bb46cdb84a123d4e28a55a5b0623173f206745e32c95cb082e648fcfd606bce99ad63e4f547e62b1cadf4611
163d7167d0610c3abcfe5a4377efa2cd780b9f94c543ccd11b7b912ea7a916ac01edc68eceb2e6f44f6c3e48c367026d23080e112da6104a84511739cd1db06c
8dbbb958602553232ee699663985026b9ef4b59b82d27b3718d136702c20e10ea6f251b59fd188a86b512b9ea61e85251188b6b333b754a7975cd5f025b05bb7
dc0f326c331f74df3d345aa5bd52963240ccac2e9d6062d95f311d4224eda6dfd9bd5a8bc155955ef2dc19646a7ba975b4e96338e33980171185d9154147f7fc
93d69de6fa7ada522786ffc7220d26e5f8c357fb3088e5bf41f7d2ab1f407447cfae0daf6f6aa5c53e69b9252d16c32d513544a08e33c878bc9b304bb2502874
26cd7b03ff598353c1db4d055b2a16219bf97f9705d0c31b3080fab29076fcacb82ff1a9f0234284a846cc9a60fdb67cc4edb7a98ca7f7823de88c0b3ef310ff
12b51055e3a14f66ca5c8ada937c18b25530325ded7761c092b177bc91ceeb0dcf6b2f711e733dce07a56ce40f259d081023287508a499a8f3a6782a13c6bccd
01e5b74784dbe6f54b2a8b511911b85413e8adc9f81733907e59f71dc488b9eec2b166b88cf7a52c83725b5d45c656bc5d12e247ca717beb133de3fabe929778
47655d1589298c3a85394add50fa0d7ba118dd8a3350343dde8af89e951a3caacc1d2ff94fba7f1909c692e828d51a37ad14d2d0c8a93e0f2ba09ff8949c176d
764865ea60f6229f106557d514a06267c99e4e61acd2cb4a917cfee02a4b0a9eb1a688212931b1370f003bcd515cfe23b3811e69c074c030334868011da0aa7a
efd081aabbb419420247a39a26f7db8f224c14687691e083907a6750d02344ca08452853cc96c042b56433b40a77be80ff077a09272f2dfdc5597d45b2877cab
aae078e1cd9b8fa6c67c966c85b5bfa523c519db7888cdcc50c14c5e884068884337f28f2efe5ee119a642b41e13e2ead0ea854825797c1310c0a5697c9f0907