**$ENCRYPTED_LIB
**$INTERFACE
*$
* LM25576
*****************************************************************************
* (C) Copyright 2013 Texas Instruments Incorporated. All rights reserved.                                            
*****************************************************************************
** This model is designed as an aid for customers of Texas Instruments.
** TI and its licensors and suppliers make no warranties, either expressed
** or implied, with respect to this model, including the warranties of 
** merchantability or fitness for a particular purpose.  The model is
** provided solely on an "as is" basis.  The entire risk as to its quality
** and performance is with the customer
*****************************************************************************
*
* This model is subject to change without notice. Texas Instruments
* Incorporated is not responsible for updating this model.
*
*****************************************************************************
*
** Released by: WEBENCH Design Center, Texas Instruments Inc.
* Part: LM25576
* Date: 31DEC2012
* Model Type: AVERAGE
* Simulator: PSPICE
* Simulator Version: 16.2.0.p001
* EVM Order Number: AN-1579 LM25576
* EVM Users Guide: SNVA217B Revised March 2007
* Datasheet: SNVS470F - REVISED MARCH 2009
*
* Model Version: Final 1.00
*
*****************************************************************************
*
* Updates:
*
* Final 1.00
* Release to Web.
*
*****************************************************************************
.SUBCKT LM25576_AVG VIN FB SW RT COMP AGND PARAMS: FSW=571.72k 
+ 	Rfbtop=3.09k Rfbbot=1k VIN=18 L=33u 
$CDNENCSTART
eee8c5c7a2bc4b01f045f303678664e7916da0bae22e8cb0bba041dd67c69ce448ea70148a9ac1670c8926c1ac5057c8ccfcd77bf87ca9dc3da3433174377f33
b5152c5bb0e05107dbec403c42b2a263fcc27bd47470a65336b6d00182c743b1b7ef0ac299ad5ba5747083db354dfc5f4e67e35f3533fd3b5657d255fb9e5eae
605a354085e8d42ddbec403c42b2a263fcc27bd47470a65336b6d00182c743b1b7ef0ac299ad5ba5747083db354dfc5f4e67e35f3533fd3b5657d255fb9e5eae
dbb50136ab67d4471c5ff6d0075662eeef6b4f6b21e0c888c7773797e8ea851414627f62d7421aabdfee1e7162b8d50c20fab63519781ef32ead06ce3607a5ce
da9e599bd926504d13e664e520d1b42313756b348cf3e5d3c34253c86426c990962f1eb0912101218ddfe1566d2a53a012ffec40b877efc13da3433174377f33
ac42102ae327949283910ba64d284a6c911d8f239570a66a3d03bd864409da0a8ed28bda8867194de3c9e6ad47c04caa10133533751c1796d065a408078a7897
410743e17dadf25b410743e17dadf25b5ff6d18ce79cdd26aad0cae5ebf3019a1ff8d1c1cb4695319614c4ff4fb774dd2a769f1a499752393e939063f289425e
7713f426c08e63be947390123d27400b202d97d1566296dcc73dcaa00ad57f94819cfdaee9331fb3c40808d0a9fbc792cdb6d8a06c36210da5634c4551eddaf7
$CDNENCFINISH
.ENDS LM25576_AVG
*$
.SUBCKT OPAMPL 2 3 6 7 4
$CDNENCSTART
eee8c5c7a2bc4b01f045f303678664e7916da0bae22e8cb0bba041dd67c69ce448ea70148a9ac1670c8926c1ac5057c8ccfcd77bf87ca9dc3da3433174377f33
2a881a700ccb36e7f810e083154e2a4898cb8ae098c61632cff8ad3c7dab1f4d514957fa89af7b31782eced520c330b4c010c5348c1bf265999ed3b4ed1431fd
d613131c519f16737566e71095690581fcc27bd47470a65336b6d00182c743b1b7ef0ac299ad5ba5747083db354dfc5f4e67e35f3533fd3b5657d255fb9e5eae
77caeacd8f1a87e7e847dda77d5f94431ff8d1c1cb4695319614c4ff4fb774dd2a769f1a4997523989a1ad57714636e4319f3b962dd05019745645a28ef0e060
592d394880f2698c7566e71095690581fcc27bd47470a65336b6d00182c743b1b7ef0ac299ad5ba5747083db354dfc5f4e67e35f3533fd3b5657d255fb9e5eae
8bc568e0ea48c041f5d3c3b74f20194cfcc27bd47470a65336b6d00182c743b1b7ef0ac299ad5ba5747083db354dfc5f4e67e35f3533fd3b5657d255fb9e5eae
db61c4c2b17d54c6e847dda77d5f94431ff8d1c1cb4695319614c4ff4fb774dd2a769f1a4997523989a1ad57714636e4319f3b962dd05019745645a28ef0e060
fe711532d0a86ed07566e71095690581fcc27bd47470a65336b6d00182c743b1b7ef0ac299ad5ba5747083db354dfc5f4e67e35f3533fd3b5657d255fb9e5eae
a3fd838cf21aaee8f5d3c3b74f20194cfcc27bd47470a65336b6d00182c743b1b7ef0ac299ad5ba5747083db354dfc5f4e67e35f3533fd3b5657d255fb9e5eae
bc0bc143e817254ba59ebf0b242dc0bec7d80e3796e3bb011879da121ea1418083c32d8fd2a299cb05f1b448b43dc1451d8eced831a9107916774364717a79e3
b8d92b22bed831d9a0bd1241223ddd59fcc27bd47470a65336b6d00182c743b1b7ef0ac299ad5ba5747083db354dfc5f4e67e35f3533fd3b5657d255fb9e5eae
1422f953e5b7231814754431581b77083d03bd864409da0a8ed28bda8867194de3c9e6ad47c04caa10133533751c1796dec9a3c4765aca6d40e18c11330b1dbe
54339379ac77337ba31ff91f26e196eec40808d0a9fbc792cdb6d8a06c36210dca393f6d75977fd33736e5520d2d2e80a9f953df30c3215e5af33a145d69ec9c
cbb26556cec07ff37a55c006d9227e57c7d80e3796e3bb011879da121ea1418083c32d8fd2a299cb05f1b448b43dc1451d8eced831a9107916774364717a79e3
1ec35d67d4f1b5d9138554d7953333ae11a4cd60e561a3701b26329504650330907b3ea85b2c3eb83f38259e8ee01a2382ab1d9f262404b5e6a232be6ec88520
cd34dbcc9c875a1a9fde7f297751871f1e6f0769034e96eac40808d0a9fbc792cdb6d8a06c36210dca393f6d75977fd33736e5520d2d2e805f8a0ce0282130be
b2a21f609854fd329ebe4154acf595a2f562e78474a33860ff5ffc50b807963a192cdd70852005be3f8d05c8742acb576c9a28e3d32bcf73b33071f7c685966a
fcc55f4e1e175ec8614321273f5a967598cb8ae098c61632cff8ad3c7dab1f4d514957fa89af7b31782eced520c330b4c010c5348c1bf265999ed3b4ed1431fd
5c1ca77feecb10aad4db42fd8b75b97511a4cd60e561a3701b26329504650330907b3ea85b2c3eb83f38259e8ee01a2382ab1d9f262404b5e6a232be6ec88520
4b4182e133223e8bd9a92cf44831ca67c7d80e3796e3bb011879da121ea1418083c32d8fd2a299cb05f1b448b43dc1451d8eced831a9107916774364717a79e3
a4cf0074e5110f4eb8836085b07af63598cb8ae098c61632cff8ad3c7dab1f4d514957fa89af7b31782eced520c330b4c010c5348c1bf265999ed3b4ed1431fd
$CDNENCFINISH
.ENDS
*$
.SUBCKT EPCMBuckBlock Vinp Vsw comp Rtn PARAMS: FSW=571.72k 
+ 	Rfbtop=3.09k Rfbbot=1k VIN=18 L=33u 
$CDNENCSTART
eee8c5c7a2bc4b01f045f303678664e7916da0bae22e8cb0bba041dd67c69ce448ea70148a9ac1670c8926c1ac5057c8ccfcd77bf87ca9dc3da3433174377f33
8d106153e6f8f9db29b23299d82c5abf08302e76e35f2e3634ef4b6a8cbe5b72ee65cc4cd0413175fcc27bd47470a65336b6d00182c743b146e3f2b411efb34a
b4e2b45935a3836d734008885ea14af45c4b44f59caa0fd828eb3db83f20c726c7d80e3796e3bb011879da121ea1418083c32d8fd2a299cb594482a3aa02264a
fc8c4fb92a71ec0c7c7b86734d34bca8932bdc5eeba0bbe811a4cd60e561a3701b26329504650330907b3ea85b2c3eb83f38259e8ee01a232c661f2baf966e7f
78caa60348a24a0d992a72614d125dd7ee296b5d6cfe99f6c40808d0a9fbc792cdb6d8a06c36210dca393f6d75977fd33736e5520d2d2e805f8a0ce0282130be
b4e2b45935a3836d07587f13989531cc11a4cd60e561a3701b26329504650330907b3ea85b2c3eb83f38259e8ee01a2382ab1d9f262404b5e6a232be6ec88520
7125637e781e961cc5d74ef465ef5c66aad0cae5ebf3019a1ff8d1c1cb4695319614c4ff4fb774dd2a769f1a4997523989a1ad57714636e4d4e96797c37928db
f389bcd064c34a3966f93556f3c865def562e78474a33860ff5ffc50b807963a192cdd70852005be3f8d05c8742acb576c9a28e3d32bcf73b33071f7c685966a
78caa60348a24a0dcefc818bca35a22d36a8238a25b722791ff8d1c1cb4695319614c4ff4fb774dd2a769f1a4997523989a1ad57714636e4d4e96797c37928db
fc8c4fb92a71ec0c52859befbca4bcf6fde1fde4f75d837dc7d80e3796e3bb011879da121ea1418083c32d8fd2a299cb05f1b448b43dc145a225137e77cc9803
b4e2b45935a3836def307a6d61c952e8ec61c118cb8546adcb7b9e5b65c12d454559685d0b27f7bf15e66e533117c91c033aa9eeb9b45b61d38aff4e12555a5d
607f1dcea0437d7eef307a6d61c952e86b0a278e02026a4e15f10dc010b2ff1725ba7b67724e3014e71f71e1875841711ff8d1c1cb469531f9d88a20803e1d09
02f5b84aeeabda69fd883d7ea21f3068108e528828f8c6701ff8d1c1cb4695319614c4ff4fb774dd2a769f1a4997523989a1ad57714636e4d4e96797c37928db
fc8c4fb92a71ec0cd520769852bf296f160feb63944fcd6d4071cd293ea311ef25ba7b67724e3014e71f71e1875841711ff8d1c1cb469531f9d88a20803e1d09
fc8c4fb92a71ec0ca982d021479a9481872fad77bd9a45fb2fd24d99eb25dae5ee65cc4cd0413175fcc27bd47470a65336b6d00182c743b146e3f2b411efb34a
b4e2b45935a3836dea5cd95250bf2313e57c2fc3b360e3cfce4cc87280205f9c32d8a999ea03d1e849f2061fb00db7bf12c7cf62fea035a642f08f514f03fe9b
3556283317fab8db16869d897e3f17ca19b60807d9ac246c2a790a8e31ec50eaf1273a5a931eddc54acf19e00b3ef9a2068ab3bb028983d87ccc0443c629ad57
7b259efb7460147ccd94f9dc7373593b52416bec8eb646930266fc71c45ceb7cfcc27bd47470a65336b6d00182c743b1b7ef0ac299ad5ba51c2662153380deae
e3a9d5224c69781ed4c91fc7450d09b8e667e281c9c80a25da909dc991e46988bb8ce6e0c33e07234964d3439d7603d6fcc27bd47470a6535bde67d136aa24f6
6803aa7db278f412274bf0e2ef2d04c032ca7236010028465d4712659a8a3d87c150ec007cc0ae3ac52289f8b2e34ad8fcb11aeab988a26d636893e067b500e8
aec295e7168c53a6b16b5628ff5fb8563d03bd864409da0a8ed28bda8867194de3c9e6ad47c04caa10133533751c1796dec9a3c4765aca6d40e18c11330b1dbe
37bb1218f01c2902b0c26a68b8e7896e8de8b67a138961e42472cee6ecd8e0c65b4d5ac1b4fa0c559afb1fe8c42be781c2356fa0b0fe3ea93da3433174377f33
a9e36af0ee8743ca274bf0e2ef2d04c08b35b5d16b2694b67e02237ff011474444babc0a08b8b1895fdecab187c343fac92c876780bf32c4698aab21b163f61b
4c058165b9d68093c2356fa0b0fe3ea998cb8ae098c61632cff8ad3c7dab1f4d514957fa89af7b31782eced520c330b4c010c5348c1bf265999ed3b4ed1431fd
b017a4d2bc142a19b0c26a68b8e7896e8de8b67a138961e480429429e862da3453f97832f6bebf5c908952695f10752cf562e78474a33860c6d7eda0cbf2aeea
3952ee5d7c167818a81c35dc330d555b32ca7236010028461f22d704bd75a8151865673affb812ae75541eea9cf845a31e5bfe9f0eb178230a01c85adf7df0d8
7f16923b2d8d3fa199a0b784f1ba1fecc57b877554a75f0b1e7d5c1a221dd634940c5038666babd9d8fd092ad3b0b339ef3ad009bbe999ede31ab53e6d87ee3b
d939e3eb90f52288c7d80e3796e3bb011879da121ea1418083c32d8fd2a299cb05f1b448b43dc1451d8eced831a910798ed2cea948ba32139c5042f39bb8be6a
e20d7477c64d4b517bdb05efde1b73cb2a66cbde179bbdc95f9b60807d318353229d78dd5e6b20cd66c3d92e1b8256e236806a8e381bf9a03a81dc6166c896d1
b06097b941c041b3d4c91fc7450d09b882110031a929743114a42eadd93f2c92146d04660fb450f8f4bf3f46ccfebc315c236beab22c3321cdef1c85cf354c6c
3cd9de3ac5f6d9d15406c3d37646147af03b0b2882ba2fed11a4cd60e561a3701b26329504650330907b3ea85b2c3eb83f38259e8ee01a232c661f2baf966e7f
aefe224f71d9a65d146d04660fb450f8f4bf3f46ccfebc315c236beab22c3321934d5a196c8c67a6c2356fa0b0fe3ea998cb8ae098c61632b554ea5eeb47bd35
49c8e4904fff5fb28e293e4e046915f18939fef32aa34cc2db03792e347e1876793fc6fd7d56cbefe52be82a7c514cfd11a4cd60e561a370d6b0c7a5d7e44f97
cfd73ae7342a0b67a0304d5c9f17e65052416bec8eb6469393d26907920748ae2a6ef03928f332e6c40808d0a9fbc792cdb6d8a06c36210da5634c4551eddaf7
4cec66815ddc3839194def839ba412ff52416bec8eb646933c6b403b0e31d3f2c2356fa0b0fe3ea998cb8ae098c61632cff8ad3c7dab1f4d85ab9def707b7f3d
f710cb3ddf52cef3b0c26a68b8e7896e13d5a8ad91355995c4b837edf299889a286df57b632a1b6409b6febdc9dbd5776f4d670dcb90cfb6ee4b7634c392bc58
9c2d8bff2ce14f94f24677cd3afa5c1fbbdea5a4550989c6c40808d0a9fbc792cdb6d8a06c36210dca393f6d75977fd33736e5520d2d2e805f8a0ce0282130be
a47dc2a672f593de344d7fff189af9e119b60807d9ac246c88f0b6d4b70e5dcc6963011c862de01bea1b9344c29e8c90f2be64f61c42ada15d80203c3c74f7c2
65defe6415f5b85cc2356fa0b0fe3ea998cb8ae098c61632cff8ad3c7dab1f4d514957fa89af7b31782eced520c330b4c010c5348c1bf265999ed3b4ed1431fd
16630b5056cd4a501d4ac95d790688a8c55c8187f39b70be98cb8ae098c61632cff8ad3c7dab1f4d514957fa89af7b31782eced520c330b42c858af240fdd657
f3b017f9df63727cc266257f8e0db6826a535d7835703e52c7d80e3796e3bb011879da121ea1418083c32d8fd2a299cb05f1b448b43dc145a225137e77cc9803
fef860e7f323e03b41a46c1e010128a839c83bf09c13d81496d451ecb088e3e3cfe90f96bc2ab60f70d74d27729fc619f26cd8c3a8f2c3335466b584b684be48
41fdc564fd055c19c986e59592437b47ecdbc14caf9796e35d817c15d812bc19936f833cbe0e3ba01de7b5bda9b754109eac9c543418a22e102ada5a3098d5bf
6cb666fb369785d1f7ca345e835c1d391864fbc487f3e5d6752832b5f976319896c37d308f05a92816a02ce29f43648af467148f06ca8e433da3433174377f33
16776f42d6fbd45780bc192c8f3274bd2a130768201b05fbf5dc172a8c7a8115b3ffd447775e686eb15a7a0e6912c75cd8840434b8523194f71a05828f27eb9b
$CDNENCFINISH
.ENDS
*$
.SUBCKT Hs 1 2 PARAMS: IN_OFFSET=0 GAIN=1 c0_num=1 c2_den=1
+ c1_den=1 c0_den=1 out_ic=0 denorm_freq=1
$CDNENCSTART
eee8c5c7a2bc4b01f045f303678664e7916da0bae22e8cb0bba041dd67c69ce448ea70148a9ac1670c8926c1ac5057c8ccfcd77bf87ca9dc3da3433174377f33
c09465880a0c711ff86b6890d865a49d5a689eeaa038273efdef4f3d749ce8ea1390157380f9be90803a4e4fde9d8d87f8bca777be937cf8eb37e504fffb2b0f
6c67a69e4243b688a74ba4774483af1bbbdea5a4550989c6c40808d0a9fbc792cdb6d8a06c36210dca393f6d75977fd33736e5520d2d2e805f8a0ce0282130be
$CDNENCFINISH
.ENDS
*$
.SUBCKT Cout 2 4
$CDNENCSTART
eee8c5c7a2bc4b01f045f303678664e7916da0bae22e8cb0bba041dd67c69ce448ea70148a9ac1670c8926c1ac5057c8ccfcd77bf87ca9dc3da3433174377f33
5d4c9c37358aa2850780c9f4e7b05e98c7d80e3796e3bb011879da121ea1418083c32d8fd2a299cb05f1b448b43dc1451d8eced831a9107916774364717a79e3
23a615fdbdb9b5d2fdc7a0fc380383a6d0a602ff3c449ef1ab0ef9e79a4b43fffcc27bd47470a65336b6d00182c743b1b7ef0ac299ad5ba51c2662153380deae
677c87c7494d02224104dcacdc23f1b3c7d80e3796e3bb011879da121ea1418083c32d8fd2a299cb05f1b448b43dc1451d8eced831a9107916774364717a79e3
61b1d0a6a49c08875497da8a5ffcc325cc368ea6b640f6683d197f9ecc19edeec40808d0a9fbc792cdb6d8a06c36210dca393f6d75977fd3c038ac0fdee6885a
b4dacc7f7af86d13b0a4bc2dfad450fd5c52ca654419a8112a852cfdd5171ef498cb8ae098c61632cff8ad3c7dab1f4d514957fa89af7b31cc65fc29fbdf6927
0d2c1d5ee6e64b3090fe146bb3c09b925c52ca654419a81176617f42cd5d956b1ff8d1c1cb4695319614c4ff4fb774dd2a769f1a499752393e939063f289425e
ec8db4b34ad944015da130e7e6c67aa20ca58e810f898e3ed7cbbe7e99195ddefcc27bd47470a65336b6d00182c743b1b7ef0ac299ad5ba51c2662153380deae
ad31c78376e11b1290fe146bb3c09b925c52ca654419a81139859341766fc92c1ff8d1c1cb4695319614c4ff4fb774dd2a769f1a499752393e939063f289425e
6f2f0675980056712af33c518a1f912617a28c7a7dc55333fe82d224fa305a633d03bd864409da0a8ed28bda8867194de3c9e6ad47c04caa9e0985b3697eeda1
774b4294137bd30c9a86568291e36a225c52ca654419a811c28124978a5e51d298cb8ae098c61632cff8ad3c7dab1f4d514957fa89af7b31cc65fc29fbdf6927
f5c68f0f70eb62c12af33c518a1f912617a28c7a7dc55333fe82d224fa305a633d03bd864409da0a8ed28bda8867194de3c9e6ad47c04caa9e0985b3697eeda1
912dbaf0beff164a2af33c518a1f912617a28c7a7dc55333fe82d224fa305a633d03bd864409da0a8ed28bda8867194de3c9e6ad47c04caa9e0985b3697eeda1
583cbcbaf6201399975d4737a35360045c52ca654419a811c28124978a5e51d298cb8ae098c61632cff8ad3c7dab1f4d514957fa89af7b31cc65fc29fbdf6927
40fff6efc02858522af33c518a1f912617a28c7a7dc55333fe82d224fa305a633d03bd864409da0a8ed28bda8867194de3c9e6ad47c04caa9e0985b3697eeda1
7d6bbcecb1f13884541725a55d97f9185c52ca654419a8112a852cfdd5171ef498cb8ae098c61632cff8ad3c7dab1f4d514957fa89af7b31cc65fc29fbdf6927
8c0aef6bb30008572af33c518a1f912617a28c7a7dc55333fe82d224fa305a633d03bd864409da0a8ed28bda8867194de3c9e6ad47c04caa9e0985b3697eeda1
017e816a1950e504921bef1b88a2057c98cb8ae098c61632cff8ad3c7dab1f4d514957fa89af7b31782eced520c330b4c010c5348c1bf265999ed3b4ed1431fd
9118b9d7abfdd559f92d8dada9f698a8fcc27bd47470a65336b6d00182c743b1b7ef0ac299ad5ba5747083db354dfc5f4e67e35f3533fd3b5657d255fb9e5eae
9af0eff9964c453e5a6543b56177625298cb8ae098c61632cff8ad3c7dab1f4d514957fa89af7b31782eced520c330b4c010c5348c1bf265999ed3b4ed1431fd
$CDNENCFINISH
.ENDS
*$
.SUBCKT LDCR 1 2 PARAMS: L=1u DCR=20m
$CDNENCSTART
eee8c5c7a2bc4b01f045f303678664e7916da0bae22e8cb0bba041dd67c69ce448ea70148a9ac1670c8926c1ac5057c8ccfcd77bf87ca9dc3da3433174377f33
3ef58a3cc4ced0ee35574dcb5fb4fe80fcc27bd47470a65336b6d00182c743b1b7ef0ac299ad5ba5747083db354dfc5f4e67e35f3533fd3b5657d255fb9e5eae
48d1201f22a6f79d5d9f033cb3c2bb5411a4cd60e561a3701b26329504650330907b3ea85b2c3eb83f38259e8ee01a2382ab1d9f262404b5e6a232be6ec88520
$CDNENCFINISH
.ENDS LDCR
*$
.SUBCKT CESR 1 2 PARAMS: C=10u ESR=2m
$CDNENCSTART
eee8c5c7a2bc4b01f045f303678664e7916da0bae22e8cb0bba041dd67c69ce448ea70148a9ac1670c8926c1ac5057c8ccfcd77bf87ca9dc3da3433174377f33
3cea00e3e3d5df881915be8fc72309befcc27bd47470a65336b6d00182c743b1b7ef0ac299ad5ba5747083db354dfc5f4e67e35f3533fd3b5657d255fb9e5eae
48d1201f22a6f79dc23135337387034211a4cd60e561a3701b26329504650330907b3ea85b2c3eb83f38259e8ee01a2382ab1d9f262404b5e6a232be6ec88520
$CDNENCFINISH
.ENDS CESR
*$
