Version 4
SHEET 1 2068 680
WIRE -1424 -720 -1840 -720
WIRE -1184 -720 -1328 -720
WIRE -1024 -720 -1184 -720
WIRE -816 -720 -944 -720
WIRE -784 -720 -816 -720
WIRE -448 -720 -784 -720
WIRE -112 -720 -368 -720
WIRE 32 -720 -112 -720
WIRE 240 -720 128 -720
WIRE 272 -720 240 -720
WIRE 736 -720 272 -720
WIRE 816 -720 736 -720
WIRE 1008 -720 896 -720
WIRE 1088 -720 1008 -720
WIRE 1248 -720 1168 -720
WIRE 1520 -720 1248 -720
WIRE 1616 -720 1520 -720
WIRE 1776 -720 1696 -720
WIRE -112 -704 -112 -720
WIRE 112 -640 112 -672
WIRE 240 -624 240 -720
WIRE -1344 -608 -1344 -672
WIRE -1312 -608 -1344 -608
WIRE -1184 -608 -1184 -720
WIRE -1184 -608 -1232 -608
WIRE 1776 -608 1776 -720
WIRE -1840 -592 -1840 -720
WIRE -112 -592 -112 -624
WIRE -32 -592 -112 -592
WIRE 112 -592 112 -640
WIRE 112 -592 32 -592
WIRE -416 -544 -544 -544
WIRE -240 -544 -352 -544
WIRE 1728 -528 1664 -528
WIRE 112 -512 112 -592
WIRE 464 -512 112 -512
WIRE 1664 -496 1664 -528
WIRE 112 -480 112 -512
WIRE 1520 -464 1520 -720
WIRE -416 -432 -432 -432
WIRE -336 -432 -352 -432
WIRE 736 -432 736 -720
WIRE 1008 -432 1008 -720
WIRE 1248 -432 1248 -720
WIRE -1840 -416 -1840 -528
WIRE -432 -384 -432 -432
WIRE -336 -384 -336 -432
WIRE 1664 -368 1664 -416
WIRE 1776 -368 1776 -512
WIRE 1776 -368 1664 -368
WIRE -1840 -320 -1840 -336
WIRE -816 -320 -816 -720
WIRE -544 -320 -544 -544
WIRE -544 -320 -816 -320
WIRE -512 -320 -544 -320
WIRE -240 -320 -240 -544
WIRE -240 -320 -256 -320
WIRE -224 -320 -240 -320
WIRE -160 -320 -224 -320
WIRE -64 -320 -160 -320
WIRE 112 -320 112 -400
WIRE 112 -320 0 -320
WIRE 240 -320 240 -560
WIRE 240 -320 112 -320
WIRE 736 -320 736 -368
WIRE 1008 -320 1008 -368
WIRE 1248 -320 1248 -368
WIRE 1520 -320 1520 -384
WIRE 1776 -320 1776 -368
WIRE -544 -304 -544 -320
WIRE -224 -304 -224 -320
WIRE 352 -288 352 -304
WIRE 352 -288 256 -288
WIRE 256 -272 256 -288
WIRE 352 -272 352 -288
WIRE 464 -240 464 -512
WIRE -656 -224 -688 -224
WIRE -544 -224 -656 -224
WIRE -512 -224 -544 -224
WIRE -224 -224 -256 -224
WIRE -656 -208 -656 -224
WIRE -544 -208 -544 -224
WIRE 256 -160 256 -208
WIRE 352 -160 352 -192
WIRE 352 -160 256 -160
WIRE 416 -160 352 -160
WIRE -128 -128 -256 -128
WIRE 352 -128 352 -160
WIRE -656 -112 -656 -144
WIRE -544 -112 -544 -128
WIRE -128 -112 -128 -128
WIRE 304 -48 272 -48
WIRE -816 -32 -816 -320
WIRE -512 -32 -816 -32
WIRE -208 -32 -256 -32
WIRE -208 -16 -208 -32
WIRE -128 -16 -128 -32
WIRE 352 -16 352 -32
WIRE 464 -16 464 -144
WIRE 464 -16 352 -16
WIRE -816 0 -816 -32
WIRE 352 16 352 -16
WIRE -384 48 -384 32
WIRE -208 64 -208 48
WIRE -304 80 -304 32
WIRE -816 96 -816 64
WIRE -304 128 -304 80
WIRE -304 224 -304 208
WIRE -304 320 -304 304
FLAG -160 -320 CPOUT
FLAG -1840 -320 0
FLAG -128 -16 0
FLAG -384 48 0
FLAG -208 64 0
FLAG -304 320 0
FLAG 736 -320 0
FLAG 272 -720 OUT
FLAG 112 -640 GATE
FLAG -304 80 PGOOD
FLAG 1520 -320 0
FLAG -816 96 0
FLAG -784 -720 IN
FLAG 352 16 0
FLAG -544 -112 0
FLAG 352 -304 IN
FLAG -688 -224 EN
FLAG 272 -48 EN
FLAG -656 -112 0
FLAG 1776 -320 0
FLAG 1008 -320 0
FLAG 1248 -320 0
SYMBOL cap -416 -416 R270
WINDOW 0 32 32 VTop 2
WINDOW 3 0 32 VBottom 2
SYMATTR InstName C1
SYMATTR Value 1µ
SYMATTR SpiceLine Rser=1m
SYMBOL cap -352 -560 R90
WINDOW 0 0 32 VBottom 2
WINDOW 3 32 32 VTop 2
SYMATTR InstName C2
SYMATTR Value 10µ
SYMATTR SpiceLine Rser=1m
SYMBOL voltage -1840 -432 R0
WINDOW 123 0 0 Left 0
WINDOW 39 24 44 Left 2
SYMATTR SpiceLine Rser=60m
SYMATTR InstName V1
SYMATTR Value 22
SYMBOL res -240 -320 R0
SYMATTR InstName R1
SYMATTR Value 1.2Meg
SYMBOL res -144 -128 R0
SYMATTR InstName R2
SYMATTR Value 100k
SYMBOL res -288 224 R180
WINDOW 0 36 76 Left 2
WINDOW 3 36 40 Left 2
SYMATTR InstName R5
SYMATTR Value 510k
SYMBOL voltage -304 208 R0
WINDOW 123 0 0 Left 0
WINDOW 39 0 0 Left 0
SYMATTR InstName V3
SYMATTR Value 3.6
SYMBOL LTC3290 -384 -176 R0
SYMATTR InstName U2
SYMBOL cap -224 -16 R0
SYMATTR InstName C3
SYMATTR Value 4.7µ
SYMATTR SpiceLine V=6.3 Rser=1m
SYMBOL nmos 32 -672 R270
SYMATTR InstName M1
SYMATTR Value IPT004N03L
SYMBOL cap 720 -432 R0
SYMATTR InstName C4
SYMATTR Value 1m
SYMATTR SpiceLine Rser=18m
SYMBOL res 96 -496 R0
SYMATTR InstName R6
SYMATTR Value 13k
SYMBOL cap 32 -608 R90
WINDOW 0 0 32 VBottom 2
WINDOW 3 32 32 VTop 2
SYMATTR InstName C5
SYMATTR Value 0.1µ
SYMBOL res -128 -720 R0
SYMATTR InstName R7
SYMATTR Value 100
SYMBOL res -928 -736 R90
WINDOW 0 0 56 VBottom 2
WINDOW 3 32 56 VTop 2
SYMATTR InstName R8
SYMATTR Value 10m
SYMBOL res 1504 -480 R0
SYMATTR InstName R9
SYMATTR Value 100
SYMBOL nmos -1424 -672 R270
SYMATTR InstName M2
SYMATTR Value IPT004N03L
SYMBOL voltage -1328 -608 R270
WINDOW 3 -53 -106 VRight 2
WINDOW 123 0 0 Left 0
WINDOW 39 0 0 Left 0
SYMATTR Value PULSE(0 12 100u 1u 1u 10m 30m)
SYMATTR InstName V4
SYMBOL cap -800 64 R180
WINDOW 0 24 56 Left 2
WINDOW 3 24 8 Left 2
SYMATTR InstName C6
SYMATTR Value 20µ
SYMATTR SpiceLine Rser=1m
SYMBOL nmos 416 -240 R0
SYMATTR InstName M3
SYMATTR Value 2N7002
SYMBOL res 336 -288 R0
SYMATTR InstName R3
SYMATTR Value 10k
SYMBOL nmos 304 -128 R0
SYMATTR InstName M4
SYMATTR Value 2N7002
SYMBOL res -560 -320 R0
SYMATTR InstName R10
SYMATTR Value 7.5k
SYMBOL res -560 -224 R0
SYMATTR InstName R11
SYMATTR Value 2k
SYMBOL cap -672 -208 R0
SYMATTR InstName C8
SYMATTR Value 100n
SYMATTR SpiceLine Rser=10m
SYMBOL cap 240 -272 R0
SYMATTR InstName C9
SYMATTR Value 0.1µ
SYMATTR SpiceLine Rser=10m
SYMBOL zener 224 -624 R0
SYMATTR InstName D1
SYMATTR Value BZX84C12L
SYMATTR Description Diode
SYMATTR Type diode
SYMBOL schottky -64 -304 R270
WINDOW 0 36 32 VTop 2
WINDOW 3 -4 32 VBottom 2
SYMATTR InstName D2
SYMATTR Value 1N5819
SYMATTR Description Diode
SYMATTR Type diode
SYMBOL ind -352 -736 R90
WINDOW 0 5 56 VBottom 2
WINDOW 3 32 56 VTop 2
SYMATTR InstName L1
SYMATTR Value 50n
SYMATTR SpiceLine Rser=290u
SYMBOL schottky -1824 -528 R180
WINDOW 0 24 64 Left 2
WINDOW 3 24 0 Left 2
SYMATTR InstName D3
SYMATTR Value RBR40NS40A
SYMATTR Description Diode
SYMATTR Type diode
SYMBOL nmos 1728 -608 R0
SYMATTR InstName M5
SYMATTR Value IPT004N03L
SYMBOL voltage 1664 -512 R0
WINDOW 3 25 89 Left 2
WINDOW 123 0 0 Left 0
WINDOW 39 0 0 Left 0
SYMATTR Value PULSE(0 12 7m 1u 1u 10m 30m)
SYMATTR InstName V2
SYMBOL res 1712 -736 R90
WINDOW 0 0 56 VBottom 2
WINDOW 3 32 56 VTop 2
SYMATTR InstName R4
SYMATTR Value 1
SYMBOL cap 992 -432 R0
SYMATTR InstName C7
SYMATTR Value 3m
SYMATTR SpiceLine Rser=6m
SYMBOL cap 1232 -432 R0
SYMATTR InstName C10
SYMATTR Value 2m
SYMATTR SpiceLine Rser=10m
SYMBOL ind 912 -736 R90
WINDOW 0 5 56 VBottom 2
WINDOW 3 32 56 VTop 2
SYMATTR InstName L2
SYMATTR Value 1.5µ
SYMATTR SpiceLine Rser=2.3m
SYMBOL ind 1184 -736 R90
WINDOW 0 5 56 VBottom 2
WINDOW 3 32 56 VTop 2
SYMATTR InstName L3
SYMATTR Value 100n
SYMATTR SpiceLine Rser=10m
TEXT -464 384 Left 2 !.tran 50m startup
