**$ENCRYPTED_LIB
**$INTERFACE
*$
*TPS7A3001
*****************************************************************************
* (C) Copyright 2017 Texas Instruments Incorporated. All rights reserved.
*****************************************************************************
** This model is designed as an aid for customers of Texas Instruments.
** TI and its licensors and suppliers make no warranties, either expressed
** or implied, with respect to this model, including the warranties of
** merchantability or fitness for a particular purpose. The model is
** provided solely on an "as is" basis. The entire risk as to its quality
** and performance is with the customer.
*****************************************************************************
*
** Released by: WEBENCH Design Center, Texas Instruments Inc.
* Part: TPS7A3001
* Date: 03MAR2017
* Model Type: Transient
* Simulator: PSPICE
* Simulator Version: 16.2.0.p001
* EVM Order Number: TPS7A30-49EVM-567
* EVM Users Guide:  SLVU405August 2010 
* Datasheet: SBVS125D AUGUST 2010 REVISED JUNE 2015
*
* Model Version: Final 1.10
*
*****************************************************************************
*
* Updates:
* Features modeled -
* 1. The model has been updated to new template of LDO.
* 2. Converted model to support floating ground.
* 3. Startup & Shutdown Response
* 4. Dropout vs ILOAD
* 5. Current limit
* 6. Line & Load Transient Response
* 7. VOUT vs VIN Plot
* 8. VOUT vs IOUT Plot
* 9. Soft start function
* 10.Supports dual polarity enable pin voltage.
*
* Features not modeled -
* 1. Noise vs Frequency
* 2. Ground current, Enable current, Feedback current, shutdown current and quiescent current.
* 3. Temperature Dependent Characteristics
*
*****************************************************************************
* Final 1.00
* Release to Web
*
*****************************************************************************
.SUBCKT TPS7A3001_TRANS  PwPd EN FB IN NC NR DNC OUT GND
$CDNENCSTART
eee8c5c7a2bc4b01f045f303678664e7916da0bae22e8cb0bba041dd67c69ce448ea70148a9ac1670c8926c1ac5057c8ccfcd77bf87ca9dc649b891c21c064b3
b0eb42ca922cce592fbfcc2b872ff94649a0790b1563632ace5ec34e6f8ad1ca6e02cd619ff2cf87bc945051238d58a32594fc6756c8b3f583a3a146f650f598
39438c6af260813937080f586b2fbb9f644126c9831a96bd095f9bedd65084de5430d82690fffa580772fb15e912eb40dab60644adcdd002e24c6d9cc4bfe719
3e2f6d3b6fa1f79e52378008865f93b9bf60149f16b6ce3bdec29ec8cb099723688e27638f1df72aefda6a80b66cfdd1d2589f4b5b2a31d36bb3179100cfa906
a16523cb4c6008801acdef34d66cba5c839f0ad774c40a1eb032015482838020a88a9dcc70a8f7945720491e0bbafc3e1118a56ec97d9a4821f75f6f36e1daff
90124f6cbed1c8c0706b807646b80371dcf3cb9f8e545a35f6bdaa4da8832bb852378008865f93b9bf60149f16b6ce3bdec29ec8cb099723f774410c4f4ab05b
c9df73872fc60450914cc91cbc633d50feaabb2f467e2556735c1f65c9dd77466ce4f815592bc1a278da3322d7f61d80520680b9e594da3331e52095eae54aa0
2f646e0e8d7ca9fb860341bb47536c89d3c6f4cd3b9e53669f7df7e1d853713798709113e7ea04d2b5f1c17ee7956303cff95161d8d9cc323eefab2b6064cbcb
93d3808648446fd760c210771409cb2e47d18c34b5f36485b531fdb8889633b4bf1ee911780421ddcff95161d8d9cc32c0ad10094a2a63e0ac0b5d960a042cb8
8f10d309634521e5102c2da2ca6acff0fcbc663993adc5154a43651c71ddb4916cfda2889ca0977fb0b855b6ce2df6ef6b8b8d257486dda595ec2a370ce37293
9afa1f10a7f457ea45cb00bd1bcc1135766ebbd454ea045caed41d0d06901c485453634dcbb7e97a1e23ab969eacc50d7e5830c8fa1ed7ff7cefffb831d02228
3b59b36ad64eb5862531ce9df5eb060314f57d701dc487aa8e315420c91f1b9852378008865f93b9bf60149f16b6ce3bdec29ec8cb099723f774410c4f4ab05b
b052355e65d40bdae111ba0215d358f9459cb4650f4cb38007745ed8e41a1c67c2c330e8667bf9b5641d3019da38fe06cff95161d8d9cc323eefab2b6064cbcb
e0bee0f3fadd672460c210771409cb2e47d18c34b5f36485f24bf58ddadd36c75fbceec05a2e4b3f7d7f15953a32e2dca88a9dcc70a8f794e18e7edec71fdf76
ee34e7210147ec2f706b807646b803711639f0160e9f638837de7451a32ff866949e0297405d1edc52378008865f93b9bf60149f16b6ce3b12a7436ee1dda1c5
f9b0e0bab8595c63706b807646b80371ccec6352768680bc5cd9c12dd7cd61d18949a33b82981c9152378008865f93b9bf60149f16b6ce3b12a7436ee1dda1c5
e9f419af62bfe95e27920222bf9105df469229e9dab2e254d814bd9cd642de4f6b574213c15e8d895f90fd97fe00cbaf89b483aa9b348dfe94d0b570fc00f073
f44496155f03ed4f1e23ab969eacc50d7e5830c8fa1ed7ff696aa7e01e9de0fa32e29a6246c48bc143344082aa2aa6005b272c2ad6cd5a97afb96682a0fd0ed7
1ac3d64a7ec42565706b807646b80371fafbb00062b4cc8e6245bd735d92addb81ee039821684c2d778b05e9cb84dbb0982f8e6c5d2159445f3f021b454b1c17
8c980e460c4bd26685ca69fda8cf338a520680b9e594da33c6fe739cf8d127e23959933062010255be84ef1d06fd4ec871c2d07a7e64431c2d07e2faeb1c2f03
cdaa385411811e27bfd81d659a09e4b32637e9cac2aa5cea2cecad1ebf804c4bf467148f06ca8e43cff95161d8d9cc32c0ad10094a2a63e0ac0b5d960a042cb8
54653036f112a7e5706b807646b80371802824746416a3df5b91a77da1294afa41bcb8152a6d6ec3ef1d7357d3c4e2f3644126c9831a96bd7949894bfdef8221
c2b5bd42e7fbccfd821859b1bda1f2ae2688e0dfc494de0f9d0409e9e354888f8492e52ca99071377fb473168bd2f83b0421643f509309586a32f92dab8c5fc0
f9c81f2aad4ad1cb706b807646b80371a42a4ea91616142faef7545185fa318e11072b74bdac9ce624fdfd9bb2e10b076cfda2889ca0977f66d0a441d369e80e
cc09709c562a8286706b807646b8037116eb89925ba160aba70502b4b63bf776a88a9dcc70a8f7945720491e0bbafc3e1118a56ec97d9a4821f75f6f36e1daff
a5d158a0fc11634f706b807646b8037117f1fdd7c792d4e5fe81ac2d26f5b5afbf1ee911780421ddcff95161d8d9cc32c0ad10094a2a63e0ac0b5d960a042cb8
29e36d847caf87f6706b807646b803712f82a75453b2b6919987d084c22b81f46010ccad82c4f3c31b411b26b0d7b97f2121ddede34064c3a0376260a0ad0a2a
23b782b3d6a37df13c655bce0be2036a6493eff119a48cd0646aec7a632d4717dac97c80edbc05eecffc6767e93f8327eeb66df6e3ab7855b757c5a5e15c6c57
d29a3819b03a632a706b807646b8037197f6b8c90d19e38686ae19661943aa6ccd1d0fa6fd077f07dad4b7980b83d60c3c655bce0be2036a989e8be4ee072e34
0be1bd08545f4ec3706b807646b8037101c25adae6ace34deec04cf735ab49edcc5c8a293799fcd0520680b9e594da33c6fe739cf8d127e2316ab09ab1061fc0
e9f419af62bfe95ebf230db17611f82fffb8797e8c1a1d23436c3556aa6a540478b54ce720b1001e83d43b0c914c53c04864e9cb1d7cfefa9c1ed0ad5afcabc8
0a74212461f65cb9584a5e017f4bbf2110636e59a4fc36bcfe09faa923f2813f3c655bce0be2036a6493eff119a48cd0646aec7a632d4717e3473b6c49a9fbf8
bc8ee2299b220803beda7935c8aeca8d90d894e251243331dc0745283a910a9d520680b9e594da33c6fe739cf8d127e239599330620102554c8abb319a1323bc
8df0563ff6b12bcb706b807646b80371a847f3fb487c186c5dc5e56b958829a66d38b02f7b1161a752378008865f93b9bf60149f16b6ce3b12a7436ee1dda1c5
5ce015494c01cf89706b807646b803715919b4783d29334149c07f49ac45bfd509cf2ab6c7c57e83cbdebe7801a4e11c41097083f6b3a209438dd5040596486f
a70a54aea5853b39706b807646b8037180a93b86ccc5ef96c916f3372b772a29da91f89291855a7d62d766f77596a54b1e23ab969eacc50db8c065286a366fa3
a78fdcc1e2fc2ea7706b807646b8037116eb89925ba160ab16792b4c86a633633c655bce0be2036a6493eff119a48cd0646aec7a632d4717e3473b6c49a9fbf8
02dac6cba784505e706b807646b80371a847f3fb487c186cf2f0e4a02a03c89c2da085ac1302fd51478a87bc5b8e6cf9a88a9dcc70a8f794e18e7edec71fdf76
d0f9d3cd20853e06706b807646b80371a42a4ea91616142f7dbdd562c7e2b5a478b54ce720b1001e71ec91710c9893cef5c0d7d54d4d1f81756f31e59c560a1c
f28257b2a3730294706b807646b80371a847f3fb487c186c3492454d30a4ef195699b53886fa29b652378008865f93b9bf60149f16b6ce3b12a7436ee1dda1c5
e9f419af62bfe95ebc27f931268b4061ffb8797e8c1a1d23de53a9f31b5d06b3867ccbe48978b78c221f0ce1d5297324f9a0791032de27248f03faff22254705
48031809158c1c39f2888fdf728fd40632db5b4ccf597a66e34df067d77ee40ce73070a45f1d549c6cfda2889ca0977fb0b855b6ce2df6efa2b8486f2b483e13
9d3782a54af54f6d706b807646b803715919b4783d29334118cfef52ad3420eece5ec34e6f8ad1ca3f33c40b457abaa26d3f8d05274fd69c756f31e59c560a1c
788c29182fad94b1706b807646b803719b5bb5b6fc1590ed94aebb18efc1b73c100efca18ada2fcf35d318236044643da88a9dcc70a8f794e18e7edec71fdf76
10f459d39ee6f8ae706b807646b803711639f0160e9f6388f01bcf7ec72d71471b7c93db9caff3d6977aa12e8ea1263dbaa78b47fb353ab37949894bfdef8221
1e36f10390632b7b706b807646b80371a76b0e53e2b42d27358df8c5eab166640cda45e0f4fa89ff7863ff2f29c1a45c04f5da97d64827576ab1e15a702589d4
042f0c0c78bb0deb520680b9e594da33c6fe739cf8d127e23959933062010255be84ef1d06fd4ec871c2d07a7e64431cfb7e221a3cac1ef5f651d5e7370de21d
b67df0d3ab862a12706b807646b80371a847f3fb487c186cc323256276b9f4745699b53886fa29b652378008865f93b9bf60149f16b6ce3b12a7436ee1dda1c5
9ed7c1c1396d1611706b807646b80371f01bcf7ec72d7147d790ecdd2be40b36f777ea5183e4fe7204dd58f68e5fb053444f9a8f90d54cded9de4b16f63cb4fb
710f626c2faf14a6cff95161d8d9cc32c0ad10094a2a63e00043a194c0897d89f97a4ffac5ecfb7592e2c49c8ff1d722115f72ee2f39842c892ed0fe76020864
e9f419af62bfe95ee0f494962bc21b5fde925bc28fb3dbe8c744f3cd6389893a66eaeb9fc4cc8ae126bdf269845a19dddc23615aad792a85175cfff739c6cd67
b5b748c08f6d163c3454e22b05340c33644126c9831a96bd095f9bedd65084de5430d82690fffa580772fb15e912eb40dab60644adcdd002e24c6d9cc4bfe719
be933631531f96593c655bce0be2036a6493eff119a48cd0646aec7a632d4717dac97c80edbc05eecffc6767e93f8327eeb66df6e3ab7855b757c5a5e15c6c57
a3f11315c1ba40a1706b807646b80371c25bad075e7dc50f899cfa0836da52de6627593e2419d13a2ad88fb83c047101cff95161d8d9cc323eefab2b6064cbcb
e9f419af62bfe95edca29065f7b4a6842688e0dfc494de0f7b5d94fa8ea960a58492e52ca990713792b35fbc4ba24d2de46c017a7b0ad49ca62bc7c49eda0b49
8954e0140aaf2fe56d35d8485846d6993c655bce0be2036a6493eff119a48cd0646aec7a632d4717dac97c80edbc05eecffc6767e93f8327a7ba0de83964ad07
22cc75479b3d980a706b807646b8037117f1fdd7c792d4e5ef8c22b4feb01fd26524d5acad086a65d107d5c830e3ea37cc5c8a293799fcd0438dd5040596486f
a3ce589fda26bc39706b807646b803715919b4783d2933412f17de7b892e97e24912b7dfe9e057b1478a87bc5b8e6cf9a88a9dcc70a8f794e18e7edec71fdf76
b90e0c5fe970b38760c210771409cb2e45945cb119d8222df24bf58ddadd36c74b84da9a526f50928996186a7016e01159423a129c2540f0438dd5040596486f
abc05a84349f7fe582f3e60d2b29a490806c8376084c115d644126c9831a96bd095f9bedd65084de5430d82690fffa580772fb15e912eb40df352ce8502f1efc
705d459f50f7a08c45cb00bd1bcc113562825a4c2b18cb5683463dd640f012e500d3e0b087c7374452378008865f93b9bf60149f16b6ce3b12a7436ee1dda1c5
bedb4c285028d389388657e9d51604f7372d25bfd5cdc5df9f7df7e1d85371374e5ddb18d203799eb5f1c17ee7956303cff95161d8d9cc323eefab2b6064cbcb
04f5acd939422ec097705d9322a214a7dbeda22f19a2de8ffb817bc487f1b3c838dc236efc714947af399d32d282acb6520680b9e594da3331e52095eae54aa0
6a30044ee8eb8b67070ad78826a995dee1353c02d4f7092366eaeb9fc4cc8ae1de4083b84c803815a770ffc06755e0b9520680b9e594da3331e52095eae54aa0
7aff1ed17501806245cb00bd1bcc1135e671e504223145ffa7701cab576072e1949e0297405d1edc52378008865f93b9bf60149f16b6ce3b12a7436ee1dda1c5
615a28c46d72374045cb00bd1bcc1135130b3e2c4dd93b6b0a0ec22218277ba4bf1ee911780421ddcff95161d8d9cc32c0ad10094a2a63e0ac0b5d960a042cb8
717cdf892ff6b6ffa60fd3951de4fe94f62cc45356863029bf1ee911780421ddcff95161d8d9cc32c0ad10094a2a63e00043a194c0897d89ece25f51b0450164
86ad213343ec82a90abfc569c2f15564b861e2375d59766c9d92a17a415fdca4a147194f3a3bf6c0710f626c2faf14a6cff95161d8d9cc323eefab2b6064cbcb
8455ae8682232b60be00a2a37fc213afc5a5575b8a074b0f0bbb633b6d5e26b0afa4b46e52e3a66ecb5bc8ca693a8e65e71f71e1875841717949894bfdef8221
904e90e8e5b2fbfd2531ce9df5eb0603ed258290be6814184a43651c71ddb4916cfda2889ca0977fb0b855b6ce2df6ef6b8b8d257486dda595ec2a370ce37293
560bc4dfcba57a2c1b1301b16df2da0523d5418d92f055ce66eaeb9fc4cc8ae1b41b141f60210f2ba770ffc06755e0b9520680b9e594da3331e52095eae54aa0
6f9764b062a61846df94e35e4efbe801a81b64b03c55448366eaeb9fc4cc8ae1d7fdd13664b19a3da770ffc06755e0b9520680b9e594da3331e52095eae54aa0
5f41a7a4794b536715f60e4ce62d5ce42590e421f8af092fce5ec34e6f8ad1cac5215b22412546bca770ffc06755e0b9520680b9e594da3331e52095eae54aa0
c43ca65fb3926f3b26c880f485e2ca349d92a17a415fdca4bfd36ceb5c1ed9c052378008865f93b9bf60149f16b6ce3bdec29ec8cb099723f774410c4f4ab05b
062e5f2e0baf1b67089b2a21279ca8a4c2834fa5af42a86800877b91cd4279f31c8445e575513f1bffe502e5512a5538e71f71e1875841717949894bfdef8221
2cfd781695004e380b22971992301099ed2f7377385323b19e9e8c7ab4681825ecc30ba7d73bab0b95fb626e5a733c7883a38749bc5fc337627b695349b2c896
c6ebf63c1675413a7aef26a5e1021699cff95161d8d9cc32c0ad10094a2a63e00043a194c0897d89f97a4ffac5ecfb7592e2c49c8ff1d722f6f7b0001bd498b1
5b7d7f52b30d44379cf7db80e879863e604db14412176fadf9ce223a3ac370e93c655bce0be2036a6493eff119a48cd0646aec7a632d4717e3473b6c49a9fbf8
$CDNENCFINISH
.ENDS TPS7A3001_TRANS
*$
.subckt TPS7A3001_F1 1 2 3 4  
$CDNENCSTART
eee8c5c7a2bc4b01f045f303678664e7916da0bae22e8cb0bba041dd67c69ce448ea70148a9ac1670c8926c1ac5057c8ccfcd77bf87ca9dc649b891c21c064b3
ae601cf82fbefc0c31820e631d1d1d74872d6da6e74e75eea88a9dcc70a8f7945720491e0bbafc3e1118a56ec97d9a48e3964a4fed6a2d016c0798b1f70e496a
969b68e4450fa8bd6f31076d2b37e96b3a7bc5327c69eeaf52378008865f93b9bf60149f16b6ce3bdec29ec8cb099723688e27638f1df72a39a29f304f86f2a8
$CDNENCFINISH
.ends TPS7A3001_F1
*$
.subckt TPS7A3001_S2 1 2 3 4  
$CDNENCSTART
eee8c5c7a2bc4b01f045f303678664e7916da0bae22e8cb0bba041dd67c69ce448ea70148a9ac1670c8926c1ac5057c8ccfcd77bf87ca9dc649b891c21c064b3
c21144fd15b2c61331820e631d1d1d7423f284e2e346bfb8a88a9dcc70a8f7945720491e0bbafc3e1118a56ec97d9a48e3964a4fed6a2d016c0798b1f70e496a
e07b7a6acd4bf43c6f31076d2b37e96baa35006d782c6ce952378008865f93b9bf60149f16b6ce3bdec29ec8cb099723688e27638f1df72a39a29f304f86f2a8
1e7e75f62a07f7b1bbcb463bf6330e44eff574bcdcb677aa0ffb76e2ddf4497ba7cffeee717e58d008fcce5d2aca6234d701ff4c2f8d38fadecf7009cac398c7
$CDNENCFINISH
.ends TPS7A3001_S2
*$
.SUBCKT COMPHYS_BASIC_GEN INP INM HYS OUT PARAMS: VDD=1 VSS=0 VTHRESH=0.5	
$CDNENCSTART
eee8c5c7a2bc4b01f045f303678664e7916da0bae22e8cb0bba041dd67c69ce448ea70148a9ac1670c8926c1ac5057c8ccfcd77bf87ca9dc649b891c21c064b3
9132b7121104d4358be44c41ab888f41b6e3a1568843d867a88a9dcc70a8f7945720491e0bbafc3e1118a56ec97d9a48e3964a4fed6a2d016c0798b1f70e496a
70d49a25931fcad5af5f0f227a33dfc56b574213c15e8d8904d73209bd6cb354e07469d76c73f504727902e71a3e75d8bb77e20fe987edd8d38aff4e12555a5d
d1579de13894cc53749d13634498f34b2814ec203481f38f6485690991963efc688dc2cfc32ec3a9609956094a2f05290f82827fc36822f0a21fac39ee49d32b
c985c90e830fff9457e2c5aa80851370cff95161d8d9cc32c0ad10094a2a63e00043a194c0897d89f97a4ffac5ecfb7592e2c49c8ff1d722f6f7b0001bd498b1
1fdb31c906bbcd7763285b2908224391095f9bedd65084de5430d82690fffa580772fb15e912eb40dab60644adcdd002e7b1122dbb09108fd23a19d685386164
13142c038a62aa150aa66cfdd7abddd71e23ab969eacc50d7e5830c8fa1ed7ff696aa7e01e9de0fa32e29a6246c48bc143344082aa2aa60035607e3c6d8bdcb6
$CDNENCFINISH
.ENDS COMPHYS_BASIC_GEN
*$
.SUBCKT D_D1 1 2
$CDNENCSTART
eee8c5c7a2bc4b01f045f303678664e7916da0bae22e8cb0bba041dd67c69ce448ea70148a9ac1670c8926c1ac5057c8ccfcd77bf87ca9dc649b891c21c064b3
b3390a098a7d87064e46dd92806239d2cff95161d8d9cc32c0ad10094a2a63e00043a194c0897d89f97a4ffac5ecfb7592e2c49c8ff1d722f6f7b0001bd498b1
d7072740a938f0e752008c48b90a111404d36cec99b77dc0a7f03d1e581742ea8b798ad314fde7ff78bb0ee6e0e668e4520680b9e594da3331e52095eae54aa0
$CDNENCFINISH
.ENDS D_D1
*$
.subckt d_d 1 2
$CDNENCSTART
eee8c5c7a2bc4b01f045f303678664e7916da0bae22e8cb0bba041dd67c69ce448ea70148a9ac1670c8926c1ac5057c8ccfcd77bf87ca9dc649b891c21c064b3
1580a2664af5c9b79ba351c972f8011b095f9bedd65084de5430d82690fffa580772fb15e912eb40dab60644adcdd002e7b1122dbb09108fd23a19d685386164
0697746efb67a3a37eef396dcc27bc376cfda2889ca0977fb0b855b6ce2df6ef6b8b8d257486dda5e112eab79681447c4a21f813516e5a08d62def82ebff9fb1
f7a854a98d732f8b65b706867a9136e66cfda2889ca0977fb0b855b6ce2df6ef6b8b8d257486dda5e112eab79681447c4a21f813516e5a08d62def82ebff9fb1
017be23040227359a88a9dcc70a8f7945720491e0bbafc3e1118a56ec97d9a48e3964a4fed6a2d01fd93756589926b1aa675fd2fe2e7263b9e5188f5dc85631a
39c84b0c9f72e0078e024cbd033ee0af6cfda2889ca0977fb0b855b6ce2df6ef6b8b8d257486dda5e112eab79681447c4a21f813516e5a08d62def82ebff9fb1
$CDNENCFINISH
.ends d_d
*$
.SUBCKT my_ETABLE IN+ IN- OUT+ OUT- 
$CDNENCSTART
eee8c5c7a2bc4b01f045f303678664e7916da0bae22e8cb0bba041dd67c69ce448ea70148a9ac1670c8926c1ac5057c8ccfcd77bf87ca9dc649b891c21c064b3
5a44c1b075599d03e820fef769aa747370fab9fd747b5260b7e8313b773d09869d06c2d8e2702973cafa9e92c18e5eb1e9be06d5b96c38f48d35c17cc2278dde
78aa6bbdef99d2f834f044058d7e11fd0dd9776f9606de9d0b6c4f63b3b20d441e23ab969eacc50d7e5830c8fa1ed7ff696aa7e01e9de0fa5da06947cfc285ad
4a494047e4435de1df83778fd95ae064d914061cc893cc445100c2e09fef01de17f57ee8cb6fe0773f947f2605213bf30b0e6e18e282abd13090fbd1f13a6a4b
c8d06de3763d5a9052e3625e704746c0ee1063f179d4138790cc098f9f50227052378008865f93b9bf60149f16b6ce3bdec29ec8cb099723f774410c4f4ab05b
afa1eaa0880d0b67bb12ff83a1a59ca6003d081aae52cc712599dea1014341b084997414dacd8bdbef517b05c2b1a90ff60bf87b2b1fe60d59585a6e765263de
f920a6d58185f404f6c57157062f5a99095f9bedd65084de5430d82690fffa580772fb15e912eb40dab60644adcdd002e7b1122dbb09108fd23a19d685386164
$CDNENCFINISH
.ENDS my_ETABLE
*$

