**$ENCRYPTED_LIB
**$INTERFACE
*$
* LM5123-Q1
*****************************************************************************
* (C) Copyright 2020 Texas Instruments Incorporated. All rights reserved.                                            
*****************************************************************************
** This model is designed as an aid for customers of Texas Instruments.
** TI and its licensors and suppliers make no warranties, either expressed
** or implied, with respect to this model, including the warranties of 
** merchantability or fitness for a particular purpose.  The model is
** provided solely on an "as is" basis.  The entire risk as to its quality
** and performance is with the customer
*****************************************************************************
*
* This model is subject to change without notice. Texas Instruments
* Incorporated is not responsible for updating this model.
*
*****************************************************************************
*
** Released by: Texas Instruments Inc.
* Part: LM5123-Q1
* Date: 13DEC2020
* Model Type: AVERAGE
* Simulator: PSPICE
* Simulator Version: 17.2
* EVM Order Number: NA
* EVM Users Guide: NA
* Datasheet: NA
* Topologies Supported: Boost
*
* Model Version: Final 1.0
*
*****************************************************************************
*
* Updates:
*
* Final 1.0
* 
*
*****************************************************************************
*
* Model Usage Notes:
* 1. PSpice transient model is developed considering SIMPLIS model as reference.
* 2. Temperature effects are not modeled. 
*
*****************************************************************************
.SUBCKT LM5123-Q1_AVG COMP CSN CSP PGND SW TRK VLOAD VOUT VREF VSUPPLY
+ PARAMS: L=600n FS=440k RS=2m  
$CDNENCSTART_ADV2
17f62b1fb318c25603aeb85644ae98a5d179ef807807791f6459efacb9d7ffc37a831b146dc0f06bb1ef275619162e6d8f7ad0dc708bf15ae1a1d5bd0ae623b2
46ed2d82cc75464e46890a291a02a0e1dc1280e4bd76850e9ec884c6fe6154277b4b2912aed6defc6d5850a8b542f388aaf6722d6c9cc12d95a29cf4843c4a50
c4b08c4df66d48f93c163e64d4677a901e0be42ed5020f7aa7df3c40ee17c2a8d2eb7abffdcc3c7b3d578443dcb95d422c1953cb9940828186ade68dd6554c8d
5cf9c0deed2dd8144afd8647897fdc1180d11ef301cb3a3f420755348030876a7b4b2912aed6defc6d5850a8b542f388aaf6722d6c9cc12d95a29cf4843c4a50
7353d2b8e4b55de0cad2398018ba32f20f3a030065f41ede6c3724b27c91376c92a80b3052d839bef59aba7604b34eace83d39bb235824b440cd582f44679275
6b0937d474c62554e2cfce50392096db4f0cfc7282da94e2d51b74da43d8d547cdcb32ea811f1f106a8133c68aaf43622c1953cb9940828186ade68dd6554c8d
ad7ec6af2cc857957e49a155954598de7022d7081e711d31484e3345a96df99d798b09ab09939cba9b9d8a2d5c097e26c7631546602e3db84d35e589099f003c
c038af38558ac503bdbf663bf22bcfcae34adf0094e3ed85abad222a2c25ad597d4b55da80bf4f04ad5d1049a415fe065f4c05191f5d9d258124ead5b9c56938
422218d4570a90931e8daf7544f8801ff1bd377269aaa3feada4298baf7246fbe5049df4b9771380f691e2aaaa5c6fab48713288a5177539f517901b9167b927
2dd252c1cafae54fa0663ef9ca7eea156c8e2a2c14c96282a15061a90cd3c12f0329a43730c5931f4ed92a1d625f7d930c96096c66f27b1fcfbedc0d6005fb58
b61fb6cb98ec4c7013ce55c2d1a3495fe84a8efe9d3493bf2e3523941f346e96861e74a2e5438eeb3f96ca62b8020a6d0e5fb08b8774a870785e4201874acb8e
087f40f59bbfe17fce2b49335c2d254aac38de300ff669f6d46e6b2e11fddcdbb53747988436da335fd6d985494521900a2307b15f38184a949d238478829ece
bb830df0ea28b14d7f7ad3cceed4425dd701b265d8ed6e29215c9858b8d305fb4f7cf58fec4372a0d8997a4f34fb1b922c1953cb9940828186ade68dd6554c8d
f0bb2d563514f922776156d1fa6945ef14dda86eea78706a3c5029fffed0a1eaf6722e1591ad4ed678e25e7aeab022b2bef75f6eb610aae22bdaaad74e957d19
d87768cf2b997d72615c3db44a26e8a9a77f355ec590174a46e3b46e08cf14de62f0875e3becc305d769b7b373d6bb85d5c734953ed6777edcc5b83c69ab64c4
f7f963322d6255487d95a8b34d5cae3fc154115cda48edf1a187f814d2eb6d0b68b5814b8f81b0c74ce6ecb433342fa1d5d66320a4cdc02c146fdc4e78db65ea
ce7b366eb2567306f2f953dfde62285d5c612986a07ea7352f9ca7be88cf13008cc94ae597f59e2b31362df388f668ddd5c734953ed6777edcc5b83c69ab64c4
bbf1ded5ee11ae1e292b903a1e5125ec0cdf7a3442aa3d3c86a083aa5d4c171f4f8525cc44ade343af736ec35cfe64c75eebbf1f855789fe2d8dcb7e9ab3ee47
0295fd5b9062495a7547d6559fa8521458a34877f6f1221bb9998a71b7b1d71d1bc18811d5f22e1e2b8d676f01b2507c5eebbf1f855789fe2d8dcb7e9ab3ee47
e1497891d7186e643461de83f135690f8160100d036e063b7937730d03ee7dee6f53976603f26cfb7d9f3bf8a93135bbd5c734953ed6777edcc5b83c69ab64c4
af21b97cd3d0c3b5fdc5ab2f3160205ddd15ef1be85dabb70476704be3a25bfe251ba85a4239eb56cb620a762375c3e9d5d66320a4cdc02c146fdc4e78db65ea
71f32770e376c58142b989928a2b655b3fc56185f8ec507ebdc69c0917a8d50784f045ed780aa848fbb97e390d3875e690c1d708053f570a05b17e18e0b7455d
7fc491b2c6c121ebec233cad1d1a1799b261b2d5b7d349b30a328dcab797118d1adccb965ad9e47970c96d7d43a12c50cc01f1cdbc663b592b380bbc1dd80712
5ad79007d035ee44e2ed04640f63ce096a37f8e2e3d0909e22085401ae9ed3a403e5a9d7f1715859c249fe7ff9bfef94961269a6fa18f19e09fe10dfc6837c1a
40e050030fdb08da55f6b402c9e93641f6722e1591ad4ed678e25e7aeab022b21db51e498541ba14f7f6ff6809ec6645810cac9c8f6d8af4820d65dbc7c50c65
808f6872045af901f987f63f7f23c59ec4de53945ac8bec6ffdc8a6e05a84dd69527558ebd94f973b06033dab4455b41b0d22dcbe9306b481103c53b942cd335
87f258196326ccb5c1af73a86af3f851661089b98007d25312f83618178e5266db40bb3a3a3b1b76d5f4ac97e7bb7de63f1d5621bf8f3733ad6ce90c0bcadc7f
9614605166c8ea91ea4cb8230436ded68aaf67ea6603132db8e63096e37fd5f958f096aea9309803a8ede205eb02ce904e434358ffed761813376d0d84e0dd79
3933df1a4bdd8269e32c1f27bda3b91e934d7e6c3bde34ea193c7c99a0947e540c9962ff4e2568c27ac15836dfde0d67d5c734953ed6777edcc5b83c69ab64c4
f777bf93e71af1c5d0e1102d50b71653aeac28b2766f86c820a0cb5af0c9c346d91574749eccc84bc8e4c2f12b4e059f8ff823298957b26338f7b13132d6f2f5
14af6da04ab4ec37e04fa603cfc264778b9f3346fac5c923e984f876fc79cf40129b225a82a7f7b80dd8741e653538abd388e0580d89eb22f122e27b66b2dc6a
68fce75dc54e52c9ff33cc9c545eb9357e70e2848ad26a107d45a73a9a981f57485071f5cb876016dc6933fd6b118d22d5c734953ed6777edcc5b83c69ab64c4
8c7bb5a044e61372813ee5add7f8f5279421f09a5c2148c3cd4c45c953ab223d17e8e1de0b40ba9905735df35cf2b164956018f82b5e44113b1f8a16d0e119cc
20eaee4fe9b3d193524931e28a983c0325ce40c6a68ec20eb525c91f28a23f1117e8e1de0b40ba9905735df35cf2b164956018f82b5e44113b1f8a16d0e119cc
16755e159728599c4f83898c91429f5ab4fae54895d961c404fa864084538b4d5316c618f4aeb5e9379e2ec6a63390a852fb9bf24aa1264eb4676c73cc4183fd
3d17951eb3fc7986d3ee85bff68b4302be1eb6ebde78d9066645a0cb23c89e29157b42e3f65fe1bc429d1d516a9e36767b7a31896ff957c3ac30cd1308228e11
81bfefb4531ff850bee278e1ff1c49b2d24b7a731cf0ec46c49d74d504e82229e481415f950dc93e178c708c28a0ab2cd5c734953ed6777edcc5b83c69ab64c4
9240ad68ca2fda3912919876649559e5ae4df08b0bcef03cdbdb8f6bfd56817fb70f8e23981b8c5c426ea697569c43d25a2d932633064fe638103076684df4dc
dc63b048c2bfcaf164708ee9226eb14c594ed10353038147adb6c4ce0dc8754a7f44d360e32981d6adfe9437c79500702dd6d0657384722963cd9411d9e74a2a
fe5b0fc52ecd11299ec0e37582d9224d3fc56185f8ec507ebdc69c0917a8d50789c9249fa1af14213ea536dee1ba728c06b9f79d03a0be9a7a34d007952d743b
be9b6778887d7e43d9c2b6a4504eb470436272cfdfa09864efddf635da90dce37287ee5f92a057bfe1760ccc2d7916f727666e5ad248057cc22505f45b3e6871
73679f2e90b4f4471324ecfed62b96ebb261b2d5b7d349b30a328dcab797118d1adccb965ad9e47970c96d7d43a12c50cc01f1cdbc663b592b380bbc1dd80712
ce4f8ceb55ece10e991882d3edb4eab324f4760c6d6d2a32d276450f4de55861194410a10b5de8c291d20d1853df0e71d5c734953ed6777edcc5b83c69ab64c4
ee6890da0096140d905bd70286aa2ab908a5ce53a817b68c878e5e4cba95343db261b2d5b7d349b30a328dcab797118d62391000388ea3489611226a32e2138f
$CDNENCFINISH_ADV2
.ENDS




*$
.subckt CCM_SW_AVG 1 2 3 5
$CDNENCSTART_ADV2
17f62b1fb318c25603aeb85644ae98a5d179ef807807791f6459efacb9d7ffc37a831b146dc0f06bb1ef275619162e6d8f7ad0dc708bf15ae1a1d5bd0ae623b2
c4b6e26f7d221ece49a99a4c9451b81b80aae0cbeefcf1afd6750e53d71be706b934a5aebc5ccffb43fa3c58218848ff638c6442246c4820bc1e02c223af201f
b524b7e702fdfd286bd207fcc07be15326d428bdbeb65cbbddac979f2e8a473acd47ebccaf7c8bcdf8f2e80fb3be3a3827c6bede08ad48506de4195703f68274
7cbf66bea72382f922e2866f35d8e0f3bff6626dfd3747e1a76bab8a3bce6a24b261b2d5b7d349b30a328dcab797118d62391000388ea3489611226a32e2138f
$CDNENCFINISH_ADV2
.ends
*$
.model D_D1 d 
$CDNENCSTART_ADV2
17f62b1fb318c25603aeb85644ae98a5d179ef807807791f6459efacb9d7ffc37a831b146dc0f06bb1ef275619162e6d8f7ad0dc708bf15ae1a1d5bd0ae623b2
1f5d2547cc66d938dd5738b7fc655ffdbe1eb6ebde78d9066645a0cb23c89e29157b42e3f65fe1bc429d1d516a9e36767b7a31896ff957c3ac30cd1308228e11
5caf1aa881be0f05f343a5e71319b6e853fc3be17be0fdec4d051ab4de416684c4052ec46854c9d994fc07eb0ba2df166cbdc2551b8910bdea476576f7722cc7
8aa8cd5a12776f87ca7e45be9e4223a267c671cf9deca31255d4c477f84d7789be931bd86d73f545152e23ce6de9b9ae235046daea4504d1b59495fab801ad27
$CDNENCFINISH_ADV2
*$
.SUBCKT CESR IN OUT
+ PARAMS:  C=100u ESR=0.01 X=1 IC=0
$CDNENCSTART_ADV2
17f62b1fb318c25603aeb85644ae98a5d179ef807807791f6459efacb9d7ffc37a831b146dc0f06bb1ef275619162e6d8f7ad0dc708bf15ae1a1d5bd0ae623b2
93b32359e4dcec2b0c8f138f01101a623afa8479b32779b881d5fbeff2057af17dd37f3d5fc89ecab0e3a400fcf09709c78f94dd325ba02d318c774d1d107105
070893571471b595349f36e836232ccf968033e475013f53eecf628ef38eb54c661089b98007d25312f83618178e52666e7919a032e3adc8ff3818cad548334e
$CDNENCFINISH_ADV2
.ENDS CESR
*$

